#------------------------------------------------------------------------------
#                  Harvard-NASA Emissions Component (HEMCO)                   !
#------------------------------------------------------------------------------
#BOP
#
# !MODULE: HEMCO_Config.rc
#
# !DESCRIPTION: Contains configuration information for HEMCO. Define the
#  emissions inventories and corresponding file paths here. Entire 
#  configuration files can be inserted into this configuration file with
#  an '>>>include' statement, e.g. '>>>include HEMCO\_Config\_test.rc' 
#  The settings of include-files will be ignored.
#\\
#\\
# !REMARKS:
#  Customized for the CH4 simulation. 
#
#  The following tokens will be replaced:
#  (1) ROOT    : Filepath to HEMCO root directory
#  (2) CFDIR   : Filepath to directory of this configuration file. 
#  (3) MET     : Met field type (from G-C compilation command)
#  (4) GRID    : Horizontal grid type (from G-C compilation command)
#  (5) SIM     : Simulation type (from G-C compilation command)
#  (6) NEST    : Nested-grid type (CH, EU, NA, SE)
#  (7) LEVRED  : String w/ the # of levels in the reduced GEOS-Chem grid
#                as used in some filenames (e.g. "23L", "30L", "47L")
#  (8) LEVFULL : String w/ the # of levels in the full GEOS-Chem grid
#                as used in some filenames (e.g. "55L", "72L")
# 
# !REVISION HISTORY: 
#  Navigate to your unit tester directory and type 'gitk' at the prompt
#  to browse the revision history.
#EOP
#------------------------------------------------------------------------------
#BOC
###############################################################################
### BEGIN SECTION SETTINGS
###############################################################################

ROOT:                        {DATA_ROOT}/HEMCO
METDIR:                      {DATA_ROOT}/GEOS_{GRID_DIR}/{MET_DIR}
Logfile:                     HEMCO.log
DiagnFile:                   HEMCO_Diagn.rc
DiagnPrefix:                 HEMCO_diagnostics
DiagnFreq:                   End
Wildcard:                    *
Separator:                   /
Unit tolerance:              1
Negative values:             2
Only unitless scale factors: false
Verbose:                     {VERBOSE}
Warnings:                    {WARNINGS}

### END SECTION SETTINGS ###

###############################################################################
### BEGIN SECTION EXTENSION SWITCHES
###############################################################################
###
### This section lists all emission extensions available to HEMCO and whether 
### they shall be used or not. Extension 'base' must have extension number 
### zero, all other extension numbers can be freely chosen. Data fields in 
### section 'base emissions' will only be read if the corresponding extension 
### (identified by ExtNr) is enabled. Similarly, fields grouped into data 
### collections ('(((CollectionName', ')))CollectionName') are only considered
### if the corresponding data collection is enabled in this section. Data
### listed within a disabled extension are always ignored, even if they are
### grouped in an enabled collection (e.g. GFED-4 data will never be considered
### if the GFED extension is disabled, even if the GFED4 option is set to true).
###
### It is possible to define collections that are only evaluated if a
### collection name is *not* enabled. This is achieved by leading the
### collection name with '.not.', e.g. '(((.not.FINN_daily' ...
### '))).not.FINN_daily' for FINN monthly data (only used if daily data is
### not being used). 
###
### The ExtNr provided in this section must match with the ExtNr assigned to
### the data listed in the base emissions sections. Otherwise, the listed files
### won't be read!
###############################################################################
# ExtNr ExtName           on/off  Species
0       Base              : on    *
    --> EDGARv432         :       true
    --> GEPA              :       true
    --> CanMex            :       true
    --> MIX               :       false
    --> QFED              :       true
    --> JPL_WETCHARTS     :       true
    --> SEEPS             :       true
    --> LAKES             :       false
    --> FUNG              :       true
    --> RCP_3PD           :       false 
    --> RCP_45            :       false
    --> RCP_60            :       false
    --> RCP_85            :       false
# ----------------------------------------------------------------------------
111     GFED              : off   CH4
    --> GFED4             :       true
    --> GFED_daily        :       true
    --> GFED_3hourly      :       false
    --> Scaling_CO        :       1.05
    --> Scaling_POG1      :       1.27
    --> Scaling_POG2      :       1.27
    --> Scaling_NAP       :       2.75e-4
    --> hydrophilic BC    :       0.2
    --> hydrophilic OC    :       0.5
    --> fraction POG1     :       0.49
114     FINN              : off   CH4
    --> FINN_daily        :       true
    --> Scaling_CO        :       1.0
    --> hydrophilic BC    :       0.2
    --> hydrophilic OC    :       0.5
121     CH4_WETLANDS      : off   CH4
    --> Wetlands          :       false
    --> Rice              :       false

### END SECTION EXTENSION SWITCHES ###

###############################################################################
### BEGIN SECTION BASE EMISSIONS 
###############################################################################

# ExtNr	Name sourceFile	sourceVar sourceTime C/R/E SrcDim SrcUnit Species ScalIDs Cat Hier

#==============================================================================
# --- EDGAR v4.3.2 emissions, various sectors ---
#
# NOTES:
# - Oil, gas, and coal are lumped together in publically available data
# - Do not use fire emissions from 7A. Use QFED instead.
#==============================================================================
(((EDGARv432
### Oil and Gas ###
0 CH4_OILGAS             $ROOT/CH4/v2017-10/EDGARv432/EDGAR_v432_CH4_OilGas.generic.01x01.nc                                           emi_ch4 1970-2012/1/1/0 C xy molec/cm2/s CH4 -  1 1

### Coal ###
0 CH4_COAL               $ROOT/CH4/v2017-10/EDGARv432/EDGAR_v432_CH4_Coal.generic.01x01.nc                                             emi_ch4 1970-2012/1/1/0 C xy molec/cm2/s CH4 -  3 1

### Livestock ###
0 CH4_LIVESTOCK__4A      $ROOT/CH4/v2017-10/EDGARv432/EDGAR_v432_CH4_IPCC_4A.generic.01x01.nc                                          emi_ch4 1970-2012/1/1/0 C xy kg/m2/s     CH4 -  4 1
0 CH4_LIVESTOCK__4B      $ROOT/CH4/v2017-10/EDGARv432/EDGAR_v432_CH4_IPCC_4B.generic.01x01.nc                                          emi_ch4 1970-2012/1/1/0 C xy kg/m2/s     CH4 10 4 1

### Landfills ###
0 CH4_LANDFILLS__6A_6D   $ROOT/CH4/v2017-10/EDGARv432/EDGAR_v432_CH4_IPCC_6A_6D.generic.01x01.nc                                       emi_ch4 1970-2012/1/1/0 C xy kg/m2/s     CH4 -  5 1

### Wastewater ###
0 CH4_WASTEWATER__6B     $ROOT/CH4/v2017-10/EDGARv432/EDGAR_v432_CH4_IPCC_6B.generic.01x01.nc                                          emi_ch4 1970-2012/1/1/0 C xy kg/m2/s     CH4 -  6 1

### Rice ###
0 CH4_RICE__4C_4D        $ROOT/CH4/v2017-10/EDGARv432/EDGAR_v432_CH4_IPCC_4C_4D1_4D2_4D4.generic.01x01.nc                              emi_ch4 1970-2012/1/1/0 C xy kg/m2/s     CH4 11 7 1

### Other Anthro (industry, stationary combustion, mobile combustion, aircraft, composting, field burning of agri. residues, etc.) ###
0 CH4_OTHER__1A1_1B1_1B2 $ROOT/CH4/v2017-10/EDGARv432/EDGAR_v432_CH4_IPCC_1A1b_1A1c_1A5b1_1B1b_1B2a5_1B2a6_1B2b5_2C1b.generic.01x01.nc emi_ch4 1970-2012/1/1/0 C xy kg/m2/s     CH4 -  8 1
0 CH4_OTHER__1A1a        $ROOT/CH4/v2017-10/EDGARv432/EDGAR_v432_CH4_IPCC_1A1a.generic.01x01.nc                                        emi_ch4 1970-2012/1/1/0 C xy kg/m2/s     CH4 -  8 1
0 CH4_OTHER__1A2         $ROOT/CH4/v2017-10/EDGARv432/EDGAR_v432_CH4_IPCC_1A2.generic.01x01.nc                                         emi_ch4 1970-2012/1/1/0 C xy kg/m2/s     CH4 -  8 1
0 CH4_OTHER__1A3a_CDS    $ROOT/CH4/v2017-10/EDGARv432/EDGAR_v432_CH4_IPCC_1A3a_CDS.generic.01x01.nc                                    emi_ch4 1970-2012/1/1/0 C xy kg/m2/s     CH4 -  8 1
0 CH4_OTHER__1A3a_CRS    $ROOT/CH4/v2017-10/EDGARv432/EDGAR_v432_CH4_IPCC_1A3a_CRS.generic.01x01.nc                                    emi_ch4 1970-2012/1/1/0 C xy kg/m2/s     CH4 -  8 1
0 CH4_OTHER__1A3a_LTO    $ROOT/CH4/v2017-10/EDGARv432/EDGAR_v432_CH4_IPCC_1A3a_LTO.generic.01x01.nc                                    emi_ch4 1970-2012/1/1/0 C xy kg/m2/s     CH4 -  8 1
0 CH4_OTHER__1A3a_SPS    $ROOT/CH4/v2017-10/EDGARv432/EDGAR_v432_CH4_IPCC_1A3a_SPS.generic.01x01.nc                                    emi_ch4 1970-2012/1/1/0 C xy kg/m2/s     CH4 -  8 1
0 CH4_OTHER__1A3b        $ROOT/CH4/v2017-10/EDGARv432/EDGAR_v432_CH4_IPCC_1A3b.generic.01x01.nc                                        emi_ch4 1970-2012/1/1/0 C xy kg/m2/s     CH4 -  8 1
0 CH4_OTHER__1A3c_1A3e   $ROOT/CH4/v2017-10/EDGARv432/EDGAR_v432_CH4_IPCC_1A3c_1A3e.generic.01x01.nc                                   emi_ch4 1970-2012/1/1/0 C xy kg/m2/s     CH4 -  8 1
0 CH4_OTHER__1A3d_1C2    $ROOT/CH4/v2017-10/EDGARv432/EDGAR_v432_CH4_IPCC_1A3d_1C2.generic.01x01.nc                                    emi_ch4 1970-2012/1/1/0 C xy kg/m2/s     CH4 -  8 1
0 CH4_OTHER__1A4         $ROOT/CH4/v2017-10/EDGARv432/EDGAR_v432_CH4_IPCC_1A4.generic.01x01.nc                                         emi_ch4 1970-2012/1/1/0 C xy kg/m2/s     CH4 -  8 1
0 CH4_OTHER__6B          $ROOT/CH4/v2017-10/EDGARv432/EDGAR_v432_CH4_IPCC_2B.generic.01x01.nc                                          emi_ch4 1970-2012/1/1/0 C xy kg/m2/s     CH4 -  8 1
0 CH4_OTHER__2C          $ROOT/CH4/v2017-10/EDGARv432/EDGAR_v432_CH4_IPCC_2C1a_2C1c_2C1d_2C1e_2C1f_2C2.generic.01x01.nc                emi_ch4 1970-2012/1/1/0 C xy kg/m2/s     CH4 -  8 1
0 CH4_OTHER__4F          $ROOT/CH4/v2017-10/EDGARv432/EDGAR_v432_CH4_IPCC_4F.generic.01x01.nc                                          emi_ch4 1970-2012/1/1/0 C xy kg/m2/s     CH4 -  8 1
0 CH4_OTHER__6C          $ROOT/CH4/v2017-10/EDGARv432/EDGAR_v432_CH4_IPCC_6C.generic.01x01.nc                                          emi_ch4 1970-2012/1/1/0 C xy kg/m2/s     CH4 -  8 1
#0 CH4_OTHER__7A         $ROOT/CH4/v2017-10/EDGARv432/EDGAR_v432_CH4_IPCC_7A.generic.01x01.nc                                          emi_ch4 1970-2012/1/1/0 C xy kg/m2/s     CH4 -  9 1
)))EDGARv432

#==============================================================================
# --- Mexico oil and gas (Sheng et al., Atmos. Environ., 2017) ---
#==============================================================================
(((CanMex
### Oil ###
0 MEX_OIL              $ROOT/CH4/v2017-10/CMS/CMS_CH4_FLX_MX_2010.nc CH4_FLX_MX_Oil              2010/1/1/0 C xy molec/cm2/s CH4 1001 1 20

### Gas ###
0 MEX_GAS_PRODUCTION   $ROOT/CH4/v2017-10/CMS/CMS_CH4_FLX_MX_2010.nc CH4_FLX_MX_Gas_Production   2010/1/1/0 C xy molec/cm2/s CH4 1001 2 20
0 MEX_GAS_PROCESSING   $ROOT/CH4/v2017-10/CMS/CMS_CH4_FLX_MX_2010.nc CH4_FLX_MX_Gas_Processing   2010/1/1/0 C xy molec/cm2/s CH4 1001 2 20
0 MEX_GAS_TRANSMISSION $ROOT/CH4/v2017-10/CMS/CMS_CH4_FLX_MX_2010.nc CH4_FLX_MX_Gas_Transmission 2010/1/1/0 C xy molec/cm2/s CH4 1001 2 20
0 MEX_GAS_DISTRIBUTION $ROOT/CH4/v2017-10/CMS/CMS_CH4_FLX_MX_2010.nc CH4_FLX_MX_Gas_Distribution 2010/1/1/0 C xy molec/cm2/s CH4 1001 2 20

### Make sure to include offshore/coastal emissions (Hier=1 to add to EDGAR) ###
0 MEX_COAST_OIL              $ROOT/CH4/v2017-10/CMS/CMS_CH4_FLX_MX_2010.nc CH4_FLX_MX_Oil              2010/1/1/0 C xy molec/cm2/s CH4 1010 1 1
0 MEX_COAST_GAS_PRODUCTION   $ROOT/CH4/v2017-10/CMS/CMS_CH4_FLX_MX_2010.nc CH4_FLX_MX_Gas_Production   2010/1/1/0 C xy molec/cm2/s CH4 1010 2 1
0 MEX_COAST_GAS_PROCESSING   $ROOT/CH4/v2017-10/CMS/CMS_CH4_FLX_MX_2010.nc CH4_FLX_MX_Gas_Processing   2010/1/1/0 C xy molec/cm2/s CH4 1010 2 1
0 MEX_COAST_GAS_TRANSMISSION $ROOT/CH4/v2017-10/CMS/CMS_CH4_FLX_MX_2010.nc CH4_FLX_MX_Gas_Transmission 2010/1/1/0 C xy molec/cm2/s CH4 1010 2 1
0 MEX_COAST_GAS_DISTRIBUTION $ROOT/CH4/v2017-10/CMS/CMS_CH4_FLX_MX_2010.nc CH4_FLX_MX_Gas_Distribution 2010/1/1/0 C xy molec/cm2/s CH4 1010 2 1

#==============================================================================
# --- Canada oil and gas (Sheng et al., Atmos. Environ., 2017) ---
#==============================================================================

### Oil ###
0 CAN_OIL              $ROOT/CH4/v2017-10/CMS/CMS_CH4_FLX_CA_2013.nc CH4_FLX_CA_Gas_Oil          2013/1/1/0 C xy molec/cm2/s CH4 1002 1 60

### Gas ###
0 CAN_GAS_PRODUCTION   $ROOT/CH4/v2017-10/CMS/CMS_CH4_FLX_CA_2013.nc CH4_FLX_CA_Gas_Production   2013/1/1/0 C xy molec/cm2/s CH4 1002 2 60
0 CAN_GAS_PROCESSING   $ROOT/CH4/v2017-10/CMS/CMS_CH4_FLX_CA_2013.nc CH4_FLX_CA_Gas_Processing   2013/1/1/0 C xy molec/cm2/s CH4 1002 2 60
0 CAN_GAS_TRANSMISSION $ROOT/CH4/v2017-10/CMS/CMS_CH4_FLX_CA_2013.nc CH4_FLX_CA_Gas_Transmission 2013/1/1/0 C xy molec/cm2/s CH4 1002 2 60
0 CAN_GAS_DISTRIBUTION $ROOT/CH4/v2017-10/CMS/CMS_CH4_FLX_CA_2013.nc CH4_FLX_CA_Gas_Distribution 2013/1/1/0 C xy molec/cm2/s CH4 1002 2 60

### Make sure to include offshore/coastal emissions (Hier=1 to add to EDGAR) ###
0 CAN_COAST_OIL              $ROOT/CH4/v2017-10/CMS/CMS_CH4_FLX_CA_2013.nc CH4_FLX_CA_Gas_Oil          2013/1/1/0 C xy molec/cm2/s CH4 1011 1 1
0 CAN_COAST_GAS_PRODUCTION   $ROOT/CH4/v2017-10/CMS/CMS_CH4_FLX_CA_2013.nc CH4_FLX_CA_Gas_Production   2013/1/1/0 C xy molec/cm2/s CH4 1011 2 1
0 CAN_COAST_GAS_PROCESSING   $ROOT/CH4/v2017-10/CMS/CMS_CH4_FLX_CA_2013.nc CH4_FLX_CA_Gas_Processing   2013/1/1/0 C xy molec/cm2/s CH4 1011 2 1
0 CAN_COAST_GAS_TRANSMISSION $ROOT/CH4/v2017-10/CMS/CMS_CH4_FLX_CA_2013.nc CH4_FLX_CA_Gas_Transmission 2013/1/1/0 C xy molec/cm2/s CH4 1011 2 1
0 CAN_COAST_GAS_DISTRIBUTION $ROOT/CH4/v2017-10/CMS/CMS_CH4_FLX_CA_2013.nc CH4_FLX_CA_Gas_Distribution 2013/1/1/0 C xy molec/cm2/s CH4 1011 2 1
)))CanMex

#==============================================================================
# --- MIX v1.1 (Asia) ---
#==============================================================================
(((MIX
0 MIX_CH4_IND $ROOT/MIX/v2015-03/MIX_Asia_CH4.generic.025x025.nc   CH4_INDUSTRY    2008/1-12/1/0 C xy kg/m2/s CH4 1006 1 40
0 MIX_CH4_POW $ROOT/MIX/v2015-03/MIX_Asia_CH4.generic.025x025.nc   CH4_POWER       2008/1-12/1/0 C xy kg/m2/s CH4 1006 1 40
0 MIX_CH4_RES $ROOT/MIX/v2015-03/MIX_Asia_CH4.generic.025x025.nc   CH4_RESIDENTIAL 2008/1-12/1/0 C xy kg/m2/s CH4 1006 1 40
0 MIX_CH4_TRA $ROOT/MIX/v2015-03/MIX_Asia_CH4.generic.025x025.nc   CH4_TRANSPORT   2008/1-12/1/0 C xy kg/m2/s CH4 1006 1 40
0 MIX_CH4_AGR $ROOT/MIX/v2015-03/MIX_Asia_CH4.generic.025x025.nc   CH4_AGRICULTURE 2008/1-12/1/0 C xy kg/m2/s CH4 1006 1 40
)))MIX


#==============================================================================
# --- Gridded EPA (Maasakkers et al., Environ. Sci. Technol., 2016) ---
#
# NOTES:
# - Do not use GEPA forest fire emissions. Use QFED instead.
# - Apply seasonal scale factors to manure and rice emissions
#==============================================================================

(((GEPA
### Oil ###
0 GEPA_OIL              $ROOT/CH4/v2017-10/GEPA/GEPA_Annual.nc  emissions_1B2a_Petroleum                     2012/1/1/0    C xy molec/cm2/s CH4 1008    1 50

### Gas ###
0 GEPA_GAS_PRODUCTION   $ROOT/CH4/v2017-10/GEPA/GEPA_Annual.nc  emissions_1B2b_Natural_Gas_Production        2012/1/1/0    C xy molec/cm2/s CH4 1008    2 50
0 GEPA_GAS_PROCESSING   $ROOT/CH4/v2017-10/GEPA/GEPA_Annual.nc  emissions_1B2b_Natural_Gas_Processing        2012/1/1/0    C xy molec/cm2/s CH4 1008    2 50
0 GEPA_GAS_TRANSMISSION $ROOT/CH4/v2017-10/GEPA/GEPA_Annual.nc  emissions_1B2b_Natural_Gas_Transmission      2012/1/1/0    C xy molec/cm2/s CH4 1008    2 50
0 GEPA_GAS_DISTRIBUTION $ROOT/CH4/v2017-10/GEPA/GEPA_Annual.nc  emissions_1B2b_Natural_Gas_Distribution      2012/1/1/0    C xy molec/cm2/s CH4 1008    2 50

### Coal ###
0 GEPA_COAL_UNDERGROUND $ROOT/CH4/v2017-10/GEPA/GEPA_Annual.nc  emissions_1B1a_Coal_Mining_Underground       2012/1/1/0    C xy molec/cm2/s CH4 1008    3 50
0 GEPA_COAL_SURFACE     $ROOT/CH4/v2017-10/GEPA/GEPA_Annual.nc  emissions_1B1a_Coal_Mining_Surface           2012/1/1/0    C xy molec/cm2/s CH4 1008    3 50
0 GEPA_COAL_ABANDONED   $ROOT/CH4/v2017-10/GEPA/GEPA_Annual.nc  emissions_1B1a_Abandoned_Coal                2012/1/1/0    C xy molec/cm2/s CH4 1008    3 50

### Livestock ###
0 GEPA_LIVESTOCK__4A    $ROOT/CH4/v2017-10/GEPA/GEPA_Annual.nc  emissions_4A_Enteric_Fermentation            2012/1/1/0    C xy molec/cm2/s CH4 1008    4 50
0 GEPA_LIVESTOCK__4B    $ROOT/CH4/v2017-10/GEPA/GEPA_Annual.nc  emissions_4B_Manure_Management               2012/1/1/0    C xy molec/cm2/s CH4 10/1008 4 50

### Landfills ###
0 GEPA_LANDFILLS_MUNI   $ROOT/CH4/v2017-10/GEPA/GEPA_Annual.nc  emissions_6A_Landfills_Municipal             2012/1/1/0    C xy molec/cm2/s CH4 1008    5 50
0 GEPA_LANDFILLS_INDU   $ROOT/CH4/v2017-10/GEPA/GEPA_Annual.nc  emissions_6A_Landfills_Industrial            2012/1/1/0    C xy molec/cm2/s CH4 1008    5 50

### Wastewater ###
0 GEPA_WASTEWATER_DOME  $ROOT/CH4/v2017-10/GEPA/GEPA_Annual.nc  emissions_6B_Wastewater_Treatment_Domestic   2012/1/1/0    C xy molec/cm2/s CH4 1008    6 50
0 GEPA_WASTEWATER_INDU  $ROOT/CH4/v2017-10/GEPA/GEPA_Annual.nc  emissions_6B_Wastewater_Treatment_Industrial 2012/1/1/0    C xy molec/cm2/s CH4 1008    6 50

### Rice ###
0 GEPA_RICE             $ROOT/CH4/v2017-10/GEPA/GEPA_Annual.nc emissions_4C_Rice_Cultivation                 2012/1/1/0    C xy molec/cm2/s CH4 11/1008 7 50

### Other Anthro ###
0 GEPA_OTHER__1A_M      $ROOT/CH4/v2017-10/GEPA/GEPA_Annual.nc  emissions_1A_Combustion_Mobile               2012/1/1/0    C xy molec/cm2/s CH4 1008    8 50
0 GEPA_OTHER__1A_S      $ROOT/CH4/v2017-10/GEPA/GEPA_Annual.nc  emissions_1A_Combustion_Stationary           2012/1/1/0    C xy molec/cm2/s CH4 1008    8 50
0 GEPA_OTHER__2B5       $ROOT/CH4/v2017-10/GEPA/GEPA_Annual.nc  emissions_2B5_Petrochemical_Production       2012/1/1/0    C xy molec/cm2/s CH4 1008    8 50
0 GEPA_OTHER__2C2       $ROOT/CH4/v2017-10/GEPA/GEPA_Annual.nc  emissions_2C2_Ferroalloy_Production          2012/1/1/0    C xy molec/cm2/s CH4 1008    8 50
0 GEPA_OTHER__4F        $ROOT/CH4/v2017-10/GEPA/GEPA_Monthly.nc emissions_4F_Field_Burning                   2012/1-12/1/0 C xy molec/cm2/s CH4 1008    8 50
#0 GEPA_OTHER__5        $ROOT/CH4/v2017-10/GEPA_Daily.nc        emissions_5_Forest_Fires                     2012/1/1/0    C xy molec/cm2/s CH4 1008    9 50
0 GEPA_OTHER__6D        $ROOT/CH4/v2017-10/GEPA/GEPA_Annual.nc  emissions_6D_Composting                      2012/1/1/0    C xy molec/cm2/s CH4 1008    8 50

### Make sure to include offshore/coastal emissions (Hier=1 to add to EDGAR) ###
0 GEPA_COAST_OIL        $ROOT/CH4/v2017-10/GEPA/GEPA_Annual.nc  emissions_1B2a_Petroleum                     2012/1/1/0    C xy molec/cm2/s CH4 1009    1 1
0 GEPA_COAST_GAS_PR     $ROOT/CH4/v2017-10/GEPA/GEPA_Annual.nc  emissions_1B2b_Natural_Gas_Production        2012/1/1/0    C xy molec/cm2/s CH4 1009    2 1
0 GEPA_COAST_GAS_PC     $ROOT/CH4/v2017-10/GEPA/GEPA_Annual.nc  emissions_1B2b_Natural_Gas_Processing        2012/1/1/0    C xy molec/cm2/s CH4 1009    2 1
0 GEPA_COAST_GAS_TR     $ROOT/CH4/v2017-10/GEPA/GEPA_Annual.nc  emissions_1B2b_Natural_Gas_Transmission      2012/1/1/0    C xy molec/cm2/s CH4 1009    2 1
0 GEPA_COAST_GAS_DS     $ROOT/CH4/v2017-10/GEPA/GEPA_Annual.nc  emissions_1B2b_Natural_Gas_Distribution      2012/1/1/0    C xy molec/cm2/s CH4 1009    2 1
0 GEPA_COAST_COAL_U     $ROOT/CH4/v2017-10/GEPA/GEPA_Annual.nc  emissions_1B1a_Coal_Mining_Underground       2012/1/1/0    C xy molec/cm2/s CH4 1009    3 1
0 GEPA_COAST_COAL_S     $ROOT/CH4/v2017-10/GEPA/GEPA_Annual.nc  emissions_1B1a_Coal_Mining_Surface           2012/1/1/0    C xy molec/cm2/s CH4 1009    3 1
0 GEPA_COAST_COAL_A     $ROOT/CH4/v2017-10/GEPA/GEPA_Annual.nc  emissions_1B1a_Abandoned_Coal                2012/1/1/0    C xy molec/cm2/s CH4 1009    3 1
0 GEPA_COAST_LVSTK_F    $ROOT/CH4/v2017-10/GEPA/GEPA_Annual.nc  emissions_4A_Enteric_Fermentation            2012/1/1/0    C xy molec/cm2/s CH4 1009    4 1
0 GEPA_COAST_LVSTK_M    $ROOT/CH4/v2017-10/GEPA/GEPA_Annual.nc  emissions_4B_Manure_Management               2012/1/1/0    C xy molec/cm2/s CH4 10/1009 4 1
0 GEPA_COAST_LDF_M      $ROOT/CH4/v2017-10/GEPA/GEPA_Annual.nc  emissions_6A_Landfills_Municipal             2012/1/1/0    C xy molec/cm2/s CH4 1009    5 1
0 GEPA_COAST_LDF_I      $ROOT/CH4/v2017-10/GEPA/GEPA_Annual.nc  emissions_6A_Landfills_Industrial            2012/1/1/0    C xy molec/cm2/s CH4 1009    5 1
0 GEPA_COAST_WSTW_D     $ROOT/CH4/v2017-10/GEPA/GEPA_Annual.nc  emissions_6B_Wastewater_Treatment_Domestic   2012/1/1/0    C xy molec/cm2/s CH4 1009    6 1
0 GEPA_COAST_WSTW_I     $ROOT/CH4/v2017-10/GEPA/GEPA_Annual.nc  emissions_6B_Wastewater_Treatment_Industrial 2012/1/1/0    C xy molec/cm2/s CH4 1009    6 1
0 GEPA_COAST_RICE       $ROOT/CH4/v2017-10/GEPA/GEPA_Annual.nc  emissions_4C_Rice_Cultivation                2012/1/1/0    C xy molec/cm2/s CH4 11/1009 7 1
0 GEPA_COAST_OTH_1AM    $ROOT/CH4/v2017-10/GEPA/GEPA_Annual.nc  emissions_1A_Combustion_Mobile               2012/1/1/0    C xy molec/cm2/s CH4 1009    8 1
0 GEPA_COAST_OTH_1AS    $ROOT/CH4/v2017-10/GEPA/GEPA_Annual.nc  emissions_1A_Combustion_Stationary           2012/1/1/0    C xy molec/cm2/s CH4 1009    8 1
0 GEPA_COAST_OTH_2B5    $ROOT/CH4/v2017-10/GEPA/GEPA_Annual.nc  emissions_2B5_Petrochemical_Production       2012/1/1/0    C xy molec/cm2/s CH4 1009    8 1
0 GEPA_COAST_OTH_2C2    $ROOT/CH4/v2017-10/GEPA/GEPA_Annual.nc  emissions_2C2_Ferroalloy_Production          2012/1/1/0    C xy molec/cm2/s CH4 1009    8 1
0 GEPA_COAST_OTH_4F     $ROOT/CH4/v2017-10/GEPA/GEPA_Monthly.nc emissions_4F_Field_Burning                   2012/1-12/1/0 C xy molec/cm2/s CH4 1009    8 1
#0 GEPA_COAST_OTH_5     $ROOT/CH4/v2017-10/GEPA_Daily.nc        emissions_5_Forest_Fires                     2012/1/1/0    C xy molec/cm2/s CH4 1009    9 1
0 GEPA_COAST_OTH_6D     $ROOT/CH4/v2017-10/GEPA/GEPA_Annual.nc  emissions_6D_Composting                      2012/1/1/0    C xy molec/cm2/s CH4 1009    8 1

)))GEPA

#==============================================================================
# --- QFED2 biomass burning ---
#
# Use QFED v2.4r8 for CH4. The data in QFED/v2014-09 are for v2.4r5 and have
# been found to be buggy for CH4 (same emissions on each day).
#==============================================================================
(((QFED
#0 QFED_CH4  $ROOT/QFED/v2018-07/$YYYY/$MM/qfed2.emis_ch4.006.$YYYY$MM$DD.nc4  biomass 2000-2017/1-12/1-31/0 C xy kg/m2/s     CH4 75 9 2
0 QFED_CH4   $ROOT/CH4/v2017-10/QFED/QFEDv2.4r8.emis_ch4.$YYYY.nc              emi_ch4 2009-2015/1-12/1-31/0 C xy molec/cm2/s CH4 -  9 2
)))QFED

#==============================================================================
# --- JPL WetCHARTs v1.0 (Bloom et al., https://doi.org/10.3334/ORNLDAAC/1502) ---
#
# NOTES:
# - Use either this inventory or the wetland extension -- not both!
# - Scale JPL wetland emissions by 9% to better match values in
#   Kirschke et al., Nature Geoscience, 6, 2013.
#==============================================================================
(((JPL_WETCHARTS
0 JPLW_CH4  $ROOT/CH4/v2017-10/JPL_WetCharts/JPL_WetCharts_$YYYY.Ensemble_Mean.1x1.nc emi_ch4 2009-2015/1-12/1/0 C xy molec/cm2/s CH4 2 10 1
)))JPL_WETCHARTS

#==============================================================================
# --- Geological Seeps (Maasakkers et al., in prep) ---
#==============================================================================
(((SEEPS
0 CH4_SEEPS $ROOT/CH4/v2017-10/Seeps/Maasakkers_Geological_Seeps.01x01.nc emi_ch4 2012/1/1/0 C xy molec/cm2/s CH4 - 11 1
)))SEEPS

#==============================================================================
# --- Emissions from Lakes (Maasakkers et al., in prep) ---
#==============================================================================
(((LAKES
0 CH4_LAKES $ROOT/CH4/v2017-10/Lakes/Maasakkers_Lakes_$YYYY.01x01.nc emi_ch4 $YYYY/1-12/1/0 C xy molec/cm2/s CH4 - 12 1
)))LAKES

#==============================================================================
# --- Soil absorption & termites from Fung et al, 1991 ---
#
# NOTES:
# - Multiply soil absorption by -1 to get a "negative" flux.
#   (Only apply the scaling factor when adding to the total CH4 simulation)
# - Use updated soil absorption emissions with seasonality applied
# - For tagged CH4 simulations soil absorption is treated as a loss and applied
#   in mixing_mod.F
#==============================================================================
(((FUNG
0 CH4_TERMITES     $ROOT/CH4/v2014-09/4x5/termites.geos.4x5.nc          CH4 1985/1/1/0         C xy kg/m2/s     CH4 - 13 1
#0 CH4_SOILABSORB  $ROOT/CH4/v2014-09/4x5/soilabs.geos.4x5.nc           CH4 1985/1/1/0         C xy kg/m2/s     CH4 1 14 1
0 CH4_SOILABSORB   $ROOT/CH4/v2017-10/Fung/Soil_Absorption_4x5_$YYYY.nc CH4 2009-2015/1-12/1/0 C xy molec/cm2/s CH4 1 14 1
)))FUNG

#==============================================================================
# --- RCP future emission scenarios ---
#==============================================================================
(((RCP_3PD
0 RCP3PD_CH4 $ROOT/RCP/v2015-02/RCP_3PD/RCPs_anthro_CH4_2005-2100_23474.nc  ACCMIP 2005-2100/1/1/0 I xy kg/m2/s  CH4 - 1 1
)))RCP_3PD

(((RCP_45 
0 RCP45_CH4  $ROOT/RCP/v2015-02/RCP_45/RCPs_anthro_CH4_2005-2100_27424.nc   ACCMIP 2005-2100/1/1/0 I xy kg/m2/s  CH4 - 1 1
)))RCP_45

(((RCP_60 
0 RCP60_CH4  $ROOT/RCP/v2015-02/RCP_60/RCPs_anthro_CH4_2005-2100_43190.nc   ACCMIP 2005-2100/1/1/0 I xy kg/m2/s  CH4 - 1 1
)))RCP_60

(((RCP_85 
0 RCP85_CH4  $ROOT/RCP/v2015-02/RCP_85/RCPs_anthro_CH4_2005-2100_43533.nc   ACCMIP 2005-2100/1/1/0 I xy kg/m2/s  CH4 - 1 1
)))RCP_85

###############################################################################
### EXTENSION DATA (subsection of BASE EMISSIONS SECTION)
###
### These fields are needed by the extensions listed above. The assigned ExtNr 
### must match the ExtNr entry in section 'Extension switches'. These fields 
### are only read if the extension is enabled.  The fields are imported by the
### extensions by field name.  The name given here must match the name used 
### in the extension's source code. 
###############################################################################

#==============================================================================
# --- GFED biomass burning emissions (Extension 111) 
# NOTE: These are the base emissions in kgDM/m2/s.
#==============================================================================

(((GFED4
111 GFED_TEMP       $ROOT/GFED4/v2015-10/$YYYY/GFED4_gen.025x025.$YYYY$MM.nc  DM_TEMP       1997-2016/1-12/01/0    C xy kgDM/m2/s * - 1 1
111 GFED_AGRI       $ROOT/GFED4/v2015-10/$YYYY/GFED4_gen.025x025.$YYYY$MM.nc  DM_AGRI       1997-2016/1-12/01/0    C xy kgDM/m2/s * - 1 1
111 GFED_DEFO       $ROOT/GFED4/v2015-10/$YYYY/GFED4_gen.025x025.$YYYY$MM.nc  DM_DEFO       1997-2016/1-12/01/0    C xy kgDM/m2/s * - 1 1
111 GFED_BORF       $ROOT/GFED4/v2015-10/$YYYY/GFED4_gen.025x025.$YYYY$MM.nc  DM_BORF       1997-2016/1-12/01/0    C xy kgDM/m2/s * - 1 1
111 GFED_PEAT       $ROOT/GFED4/v2015-10/$YYYY/GFED4_gen.025x025.$YYYY$MM.nc  DM_PEAT       1997-2016/1-12/01/0    C xy kgDM/m2/s * - 1 1
111 GFED_SAVA       $ROOT/GFED4/v2015-10/$YYYY/GFED4_gen.025x025.$YYYY$MM.nc  DM_SAVA       1997-2016/1-12/01/0    C xy kgDM/m2/s * - 1 1

(((GFED_daily
111 GFED_FRAC_DAY   $ROOT/GFED4/v2015-10/$YYYY/GFED4_dailyfrac_gen.025x025.$YYYY$MM.nc GFED_FRACDAY 2003-2016/1-12/1-31/0  C xy 1 * - 1 1
)))GFED_daily

(((GFED_3hourly
111 GFED_FRAC_3HOUR $ROOT/GFED4/v2015-10/$YYYY/GFED4_3hrfrac_gen.025x025.$YYYY$MM.nc   GFED_FRAC3HR 2003-2016/1-12/1/0-23  C xy 1 * - 1 1
)))GFED_3hourly
)))GFED4

#==============================================================================
# --- FINN v1.5 biomass burning emissions (Extension 114) 
#==============================================================================
(((.not.FINN_daily
114 FINN_VEGTYP1       $ROOT/FINN/v2015-02/FINN_monthly_$YYYY_0.25x0.25.compressed.nc fire_vegtype1 $YYYY/1-12/1/0 C xy kg/m2/s * - 1 1
114 FINN_VEGTYP2       $ROOT/FINN/v2015-02/FINN_monthly_$YYYY_0.25x0.25.compressed.nc fire_vegtype2 $YYYY/1-12/1/0 C xy kg/m2/s * - 1 1
114 FINN_VEGTYP3       $ROOT/FINN/v2015-02/FINN_monthly_$YYYY_0.25x0.25.compressed.nc fire_vegtype3 $YYYY/1-12/1/0 C xy kg/m2/s * - 1 1
114 FINN_VEGTYP4       $ROOT/FINN/v2015-02/FINN_monthly_$YYYY_0.25x0.25.compressed.nc fire_vegtype4 $YYYY/1-12/1/0 C xy kg/m2/s * - 1 1
114 FINN_VEGTYP5       $ROOT/FINN/v2015-02/FINN_monthly_$YYYY_0.25x0.25.compressed.nc fire_vegtype5 $YYYY/1-12/1/0 C xy kg/m2/s * - 1 1
114 FINN_VEGTYP9       $ROOT/FINN/v2015-02/FINN_monthly_$YYYY_0.25x0.25.compressed.nc fire_vegtype9 $YYYY/1-12/1/0 C xy kg/m2/s * - 1 1
))).not.FINN_daily

(((FINN_daily
114 FINN_DAILY_VEGTYP1 $ROOT/FINN/v2015-02/FINN_daily_$YYYY_0.25x0.25.compressed.nc   fire_vegtype1 $YYYY/1-12/1/0 C xy kg/m2/s * - 1 1
114 FINN_DAILY_VEGTYP2 $ROOT/FINN/v2015-02/FINN_daily_$YYYY_0.25x0.25.compressed.nc   fire_vegtype2 $YYYY/1-12/1/0 C xy kg/m2/s * - 1 1
114 FINN_DAILY_VEGTYP3 $ROOT/FINN/v2015-02/FINN_daily_$YYYY_0.25x0.25.compressed.nc   fire_vegtype3 $YYYY/1-12/1/0 C xy kg/m2/s * - 1 1
114 FINN_DAILY_VEGTYP4 $ROOT/FINN/v2015-02/FINN_daily_$YYYY_0.25x0.25.compressed.nc   fire_vegtype4 $YYYY/1-12/1/0 C xy kg/m2/s * - 1 1
114 FINN_DAILY_VEGTYP5 $ROOT/FINN/v2015-02/FINN_daily_$YYYY_0.25x0.25.compressed.nc   fire_vegtype5 $YYYY/1-12/1/0 C xy kg/m2/s * - 1 1
114 FINN_DAILY_VEGTYP9 $ROOT/FINN/v2015-02/FINN_daily_$YYYY_0.25x0.25.compressed.nc   fire_vegtype9 $YYYY/1-12/1/0 C xy kg/m2/s * - 1 1
)))FINN_daily

#==============================================================================
# --- CH4 wetland and rice emissions (Extension 121) 
#==============================================================================
121 CH4_RICE     $ROOT/CH4/v2014-09/v42_CH4.0.1x0.1.nc               ch4_4C_4D 2004-2008/1/1/0    C xy kg/m2/s  CH4 - 1 1
121 CH4_GWET_YR  $ROOT/CH4/v2014-09/4x5/GWETTOP.annual.geos5.4x5.nc  GWETTOP   2004-2011/1/1/0    C xy 1        *   - 1 1
121 CH4_GWET_MT  $ROOT/CH4/v2014-09/4x5/GWETTOP.monthly.geos5.4x5.nc GWETTOP   2004-2011/1-12/1/0 C xy 1        *   - 1 1
121 CH4_MEAN_T   $ROOT/CH4/v2014-09/4x5/TSKIN.annual.geos5.4x5.nc    TSKIN     2004-2011/1/1/0    C xy 1        *   - 1 1
121 CH4_WETFRAC  $ROOT/CH4/v2014-09/4x5/Wetfrac.4x5.nc               WETFRAC   2000/1/1/0         C xy 1        *   - 1 1
121 CH4_LITTER_C $ROOT/CH4/v2014-09/4x5/Carbon_litter.4x5.nc         CARBON    2000/1/1/0         C xy kgC/m2/s *   - 1 1
121 CH4_SOIL_C   $ROOT/CH4/v2014-09/4x5/Carbon_soil.4x5.nc           CARBON    2000/1/1/0         C xy kgC/m2/s *   - 1 1

###############################################################################
### NON-EMISSIONS DATA (subsection of BASE EMISSIONS SECTION)
###
### Non-emissions data. The following fields are read through HEMCO but do 
### not contain emissions data. The extension number is set to wildcard 
### character denoting that these fields will not be considered for emission 
### calculation. A given entry is only read if the assigned species name is 
### an HEMCO species.
###############################################################################

#==============================================================================
# --- Meteorology fields for FlexGrid ---
#==============================================================================

# --- CN fields ---
* FRLAKE    $METDIR/$CNYR/01/$MET.$CNYR0101.CN.$RES.$NC        FRLAKE   */1/1/0               C xy  1  * -  1 1
* FRLAND    $METDIR/$CNYR/01/$MET.$CNYR0101.CN.$RES.$NC        FRLAND   */1/1/0               C xy  1  * -  1 1
* FRLANDIC  $METDIR/$CNYR/01/$MET.$CNYR0101.CN.$RES.$NC        FRLANDIC */1/1/0               C xy  1  * -  1 1
* FROCEAN   $METDIR/$CNYR/01/$MET.$CNYR0101.CN.$RES.$NC        FROCEAN  */1/1/0               C xy  1  * -  1 1
* PHIS      $METDIR/$CNYR/01/$MET.$CNYR0101.CN.$RES.$NC        PHIS     */1/1/0               C xy  1  * -  1 1

# --- A1 fields ---
* ALBEDO    $METDIR/$YYYY/$MM/$MET.$YYYY$MM$DD.A1.$RES.$NC     ALBEDO   1980-2018/1-12/1-31/* C xy  1  * -  1 1
* CLDTOT    $METDIR/$YYYY/$MM/$MET.$YYYY$MM$DD.A1.$RES.$NC     CLDTOT   1980-2018/1-12/1-31/* C xy  1  * -  1 1
* EFLUX     $METDIR/$YYYY/$MM/$MET.$YYYY$MM$DD.A1.$RES.$NC     EFLUX    1980-2018/1-12/1-31/* C xy  1  * -  1 1
* EVAP      $METDIR/$YYYY/$MM/$MET.$YYYY$MM$DD.A1.$RES.$NC     EVAP     1980-2018/1-12/1-31/* C xy  1  * -  1 1
* FRSEAICE  $METDIR/$YYYY/$MM/$MET.$YYYY$MM$DD.A1.$RES.$NC     FRSEAICE 1980-2018/1-12/1-31/* C xy  1  * -  1 1
* FRSNO     $METDIR/$YYYY/$MM/$MET.$YYYY$MM$DD.A1.$RES.$NC     FRSNO    1980-2018/1-12/1-31/* C xy  1  * -  1 1
* GRN       $METDIR/$YYYY/$MM/$MET.$YYYY$MM$DD.A1.$RES.$NC     GRN      1980-2018/1-12/1-31/* C xy  1  * -  1 1
* GWETROOT  $METDIR/$YYYY/$MM/$MET.$YYYY$MM$DD.A1.$RES.$NC     GWETROOT 1980-2018/1-12/1-31/* C xy  1  * -  1 1
* GWETTOP   $METDIR/$YYYY/$MM/$MET.$YYYY$MM$DD.A1.$RES.$NC     GWETTOP  1980-2018/1-12/1-31/* C xy  1  * -  1 1
* HFLUX     $METDIR/$YYYY/$MM/$MET.$YYYY$MM$DD.A1.$RES.$NC     HFLUX    1980-2018/1-12/1-31/* C xy  1  * -  1 1
* LAI       $METDIR/$YYYY/$MM/$MET.$YYYY$MM$DD.A1.$RES.$NC     LAI      1980-2018/1-12/1-31/* C xy  1  * -  1 1
* LWI       $METDIR/$YYYY/$MM/$MET.$YYYY$MM$DD.A1.$RES.$NC     LWI      1980-2018/1-12/1-31/* C xy  1  * -  1 1
* LWGNT     $METDIR/$YYYY/$MM/$MET.$YYYY$MM$DD.A1.$RES.$NC     LWGNT    1980-2018/1-12/1-31/* C xy  1  * -  1 1
* PARDF     $METDIR/$YYYY/$MM/$MET.$YYYY$MM$DD.A1.$RES.$NC     PARDF    1980-2018/1-12/1-31/* C xy  1  * -  1 1
* PARDR     $METDIR/$YYYY/$MM/$MET.$YYYY$MM$DD.A1.$RES.$NC     PARDR    1980-2018/1-12/1-31/* C xy  1  * -  1 1
* PBLH      $METDIR/$YYYY/$MM/$MET.$YYYY$MM$DD.A1.$RES.$NC     PBLH     1980-2018/1-12/1-31/* C xy  1  * -  1 1
* PRECANV   $METDIR/$YYYY/$MM/$MET.$YYYY$MM$DD.A1.$RES.$NC     PRECANV  1980-2018/1-12/1-31/* C xy  1  * -  1 1
* PRECCON   $METDIR/$YYYY/$MM/$MET.$YYYY$MM$DD.A1.$RES.$NC     PRECCON  1980-2018/1-12/1-31/* C xy  1  * -  1 1
* PRECLSC   $METDIR/$YYYY/$MM/$MET.$YYYY$MM$DD.A1.$RES.$NC     PRECLSC  1980-2018/1-12/1-31/* C xy  1  * -  1 1
* PRECSNO   $METDIR/$YYYY/$MM/$MET.$YYYY$MM$DD.A1.$RES.$NC     PRECSNO  1980-2018/1-12/1-31/* C xy  1  * -  1 1
* PRECTOT   $METDIR/$YYYY/$MM/$MET.$YYYY$MM$DD.A1.$RES.$NC     PRECTOT  1980-2018/1-12/1-31/* C xy  1  * -  1 1
* SEAICE00  $METDIR/$YYYY/$MM/$MET.$YYYY$MM$DD.A1.$RES.$NC     SEAICE00 1980-2018/1-12/1-31/* C xy  1  * -  1 1
* SEAICE10  $METDIR/$YYYY/$MM/$MET.$YYYY$MM$DD.A1.$RES.$NC     SEAICE10 1980-2018/1-12/1-31/* C xy  1  * -  1 1
* SEAICE20  $METDIR/$YYYY/$MM/$MET.$YYYY$MM$DD.A1.$RES.$NC     SEAICE20 1980-2018/1-12/1-31/* C xy  1  * -  1 1
* SEAICE30  $METDIR/$YYYY/$MM/$MET.$YYYY$MM$DD.A1.$RES.$NC     SEAICE30 1980-2018/1-12/1-31/* C xy  1  * -  1 1
* SEAICE40  $METDIR/$YYYY/$MM/$MET.$YYYY$MM$DD.A1.$RES.$NC     SEAICE40 1980-2018/1-12/1-31/* C xy  1  * -  1 1
* SEAICE50  $METDIR/$YYYY/$MM/$MET.$YYYY$MM$DD.A1.$RES.$NC     SEAICE50 1980-2018/1-12/1-31/* C xy  1  * -  1 1
* SEAICE60  $METDIR/$YYYY/$MM/$MET.$YYYY$MM$DD.A1.$RES.$NC     SEAICE60 1980-2018/1-12/1-31/* C xy  1  * -  1 1
* SEAICE70  $METDIR/$YYYY/$MM/$MET.$YYYY$MM$DD.A1.$RES.$NC     SEAICE70 1980-2018/1-12/1-31/* C xy  1  * -  1 1
* SEAICE80  $METDIR/$YYYY/$MM/$MET.$YYYY$MM$DD.A1.$RES.$NC     SEAICE80 1980-2018/1-12/1-31/* C xy  1  * -  1 1
* SEAICE90  $METDIR/$YYYY/$MM/$MET.$YYYY$MM$DD.A1.$RES.$NC     SEAICE90 1980-2018/1-12/1-31/* C xy  1  * -  1 1
* SLP       $METDIR/$YYYY/$MM/$MET.$YYYY$MM$DD.A1.$RES.$NC     SLP      1980-2018/1-12/1-31/* C xy  1  * -  1 1
* SNODP     $METDIR/$YYYY/$MM/$MET.$YYYY$MM$DD.A1.$RES.$NC     SNODP    1980-2018/1-12/1-31/* C xy  1  * -  1 1
* SNOMAS    $METDIR/$YYYY/$MM/$MET.$YYYY$MM$DD.A1.$RES.$NC     SNOMAS   1980-2018/1-12/1-31/* C xy  1  * -  1 1
* SWGDN     $METDIR/$YYYY/$MM/$MET.$YYYY$MM$DD.A1.$RES.$NC     SWGDN    1980-2018/1-12/1-31/* C xy  1  * -  1 1
* TO3       $METDIR/$YYYY/$MM/$MET.$YYYY$MM$DD.A1.$RES.$NC     TO3      1980-2018/1-12/1-31/* C xy  1  * -  1 1
* TROPPT    $METDIR/$YYYY/$MM/$MET.$YYYY$MM$DD.A1.$RES.$NC     TROPPT   1980-2018/1-12/1-31/* C xy  1  * -  1 1
* TS        $METDIR/$YYYY/$MM/$MET.$YYYY$MM$DD.A1.$RES.$NC     TS       1980-2018/1-12/1-31/* C xy  1  * -  1 1
* T2M       $METDIR/$YYYY/$MM/$MET.$YYYY$MM$DD.A1.$RES.$NC     T2M      1980-2018/1-12/1-31/* C xy  1  * -  1 1
* U10M      $METDIR/$YYYY/$MM/$MET.$YYYY$MM$DD.A1.$RES.$NC     U10M     1980-2018/1-12/1-31/* C xy  1  * -  1 1
* USTAR     $METDIR/$YYYY/$MM/$MET.$YYYY$MM$DD.A1.$RES.$NC     USTAR    1980-2018/1-12/1-31/* C xy  1  * -  1 1
* V10M      $METDIR/$YYYY/$MM/$MET.$YYYY$MM$DD.A1.$RES.$NC     V10M     1980-2018/1-12/1-31/* C xy  1  * -  1 1
* Z0M       $METDIR/$YYYY/$MM/$MET.$YYYY$MM$DD.A1.$RES.$NC     Z0M      1980-2018/1-12/1-31/* C xy  1  * -  1 1

# --- A3cld fields ---
* CLOUD     $METDIR/$YYYY/$MM/$MET.$YYYY$MM$DD.A3cld.$RES.$NC  CLOUD    1980-2018/1-12/1-31/* C xyz 1  * -  1 1
* OPTDEPTH  $METDIR/$YYYY/$MM/$MET.$YYYY$MM$DD.A3cld.$RES.$NC  OPTDEPTH 1980-2018/1-12/1-31/* C xyz 1  * -  1 1
* QI        $METDIR/$YYYY/$MM/$MET.$YYYY$MM$DD.A3cld.$RES.$NC  QI       1980-2018/1-12/1-31/* C xyz 1  * -  1 1
* QL        $METDIR/$YYYY/$MM/$MET.$YYYY$MM$DD.A3cld.$RES.$NC  QL       1980-2018/1-12/1-31/* C xyz 1  * -  1 1
* TAUCLI    $METDIR/$YYYY/$MM/$MET.$YYYY$MM$DD.A3cld.$RES.$NC  TAUCLI   1980-2018/1-12/1-31/* C xyz 1  * -  1 1
* TAUCLW    $METDIR/$YYYY/$MM/$MET.$YYYY$MM$DD.A3cld.$RES.$NC  TAUCLW   1980-2018/1-12/1-31/* C xyz 1  * -  1 1

# --- A3dyn fields ---
* DTRAIN    $METDIR/$YYYY/$MM/$MET.$YYYY$MM$DD.A3dyn.$RES.$NC  DTRAIN   1980-2018/1-12/1-31/* C xyz 1  * -  1 1
* OMEGA     $METDIR/$YYYY/$MM/$MET.$YYYY$MM$DD.A3dyn.$RES.$NC  OMEGA    1980-2018/1-12/1-31/* C xyz 1  * -  1 1
* RH        $METDIR/$YYYY/$MM/$MET.$YYYY$MM$DD.A3dyn.$RES.$NC  RH       1980-2018/1-12/1-31/* C xyz 1  * -  1 1
* U         $METDIR/$YYYY/$MM/$MET.$YYYY$MM$DD.A3dyn.$RES.$NC  U        1980-2018/1-12/1-31/* C xyz 1  * -  1 1
* V         $METDIR/$YYYY/$MM/$MET.$YYYY$MM$DD.A3dyn.$RES.$NC  V        1980-2018/1-12/1-31/* C xyz 1  * -  1 1

# --- A3mstC fields ---
* DQRCU     $METDIR/$YYYY/$MM/$MET.$YYYY$MM$DD.A3mstC.$RES.$NC DQRCU    1980-2018/1-12/1-31/* C xyz 1  * -  1 1
* DQRLSAN   $METDIR/$YYYY/$MM/$MET.$YYYY$MM$DD.A3mstC.$RES.$NC DQRLSAN  1980-2018/1-12/1-31/* C xyz 1  * -  1 1
* REEVAPCN  $METDIR/$YYYY/$MM/$MET.$YYYY$MM$DD.A3mstC.$RES.$NC REEVAPCN 1980-2018/1-12/1-31/* C xyz 1  * -  1 1
* REEVAPLS  $METDIR/$YYYY/$MM/$MET.$YYYY$MM$DD.A3mstC.$RES.$NC REEVAPLS 1980-2018/1-12/1-31/* C xyz 1  * -  1 1

# --- A3mstE fields ---
* CMFMC     $METDIR/$YYYY/$MM/$MET.$YYYY$MM$DD.A3mstE.$RES.$NC CMFMC    1980-2018/1-12/1-31/* C xyz 1  * -  1 1
* PFICU     $METDIR/$YYYY/$MM/$MET.$YYYY$MM$DD.A3mstE.$RES.$NC PFICU    1980-2018/1-12/1-31/* C xyz 1  * -  1 1
* PFILSAN   $METDIR/$YYYY/$MM/$MET.$YYYY$MM$DD.A3mstE.$RES.$NC PFILSAN  1980-2018/1-12/1-31/* C xyz 1  * -  1 1
* PFLCU     $METDIR/$YYYY/$MM/$MET.$YYYY$MM$DD.A3mstE.$RES.$NC PFLCU    1980-2018/1-12/1-31/* C xyz 1  * -  1 1
* PFLLSAN   $METDIR/$YYYY/$MM/$MET.$YYYY$MM$DD.A3mstE.$RES.$NC PFLLSAN  1980-2018/1-12/1-31/* C xyz 1  * -  1 1

# --- I3 fields ---
* PS        $METDIR/$YYYY/$MM/$MET.$YYYY$MM$DD.I3.$RES.$NC     PS       1980-2018/1-12/1-31/* C xy  1  * -  1 1
* SPHU      $METDIR/$YYYY/$MM/$MET.$YYYY$MM$DD.I3.$RES.$NC     QV       1980-2018/1-12/1-31/* C xyz 1  * -  1 1
* TMPU      $METDIR/$YYYY/$MM/$MET.$YYYY$MM$DD.I3.$RES.$NC     T        1980-2018/1-12/1-31/* C xyz 1  * -  1 1

#==============================================================================
# --- Time zones (offset to UTC) ---
#==============================================================================
* TIMEZONES $ROOT/TIMEZONES/v2015-02/timezones_voronoi_1x1.nc UTC_OFFSET 2000/1/1/0 C xy count * - 1 1

#==============================================================================
# --- Quantities needed for CH4 chemistry ---
#==============================================================================
* CH4_LOSS   $ROOT/CH4/v2014-09/4x5/gmi.ch4loss.geos5_47L.4x5.nc     CH4loss      1985/1-12/1/0 C xyz s-1   * - 1 1
* GLOBAL_OH  $ROOT/OH/v2014-09/v5-07-08/OH_3Dglobal.geos5.47L.4x5.nc OH           1985/1-12/1/0 C xyz kg/m3 * - 1 1
* GLOBAL_Cl  $ROOT/CH4/v2017-10/Cl_Sherwen_2016b_ACP.4x5.nc          IJ_AVG_S__Cl 2005/1-12/1/0 C xyz ppbv  * - 1 1

### END SECTION BASE EMISSIONS ###

###############################################################################
### BEGIN SECTION SCALE FACTORS 
###############################################################################

# ScalID Name sourceFile sourceVar sourceTime C/R/E SrcDim SrcUnit Oper

#==============================================================================
# --- Soil absorption scale factors ---
#
# Multiply soil absorption by -1 to get a "negative" flux.
#==============================================================================
1 NEGATIVE       -1.0 - - - xy 1 1

#==============================================================================
# --- JPL WetCHARTs scale factors ---
#
# Scale JPL wetland emissions by 9% to better match values in
#   Kirschke et al., Nature Geoscience, 6, 2013.
#==============================================================================
2 SCALE_WETLANDS  1.09 - - - xy 1 1

#==============================================================================
# --- Seasonal scaling factors ----
#==============================================================================
10 MANURE_SF $ROOT/CH4/v2017-10/Seasonal_SF/EMICH4_Manure_ScalingFactors_$YYYY.nc sf_ch4 $YYYY/1-12/1/0 C xy 1 1
11 RICE_SF   $ROOT/CH4/v2017-10/Seasonal_SF/EMICH4_Rice_ScalingFactors.nc         sf_ch4 2012/1-12/1/0  C xy 1 1

#==============================================================================
# --- QFED2 diurnal scale factors ---
#
# Fire diurnal scaling factors (% per hour) from WRAP Report to Project
# No. 178-6, July 2005
#==============================================================================
75 QFED2_TOD 0.1392/0.1392/0.1368/0.1368/0.1368/0.1368/0.1368/0.1368/0.1368/0.48/0.96/1.68/2.4/3.12/3.84/4.08/2.88/1.68/0.96/0.1368/0.1368/0.1368/0.1368/0.1368 - - - xy unitless 1

### END SECTION SCALE FACTORS ###

###############################################################################
### BEGIN SECTION MASKS 
###############################################################################

# ScalID Name sourceFile sourceVar sourceTime C/R/E SrcDim SrcUnit Oper Lon1/Lat1/Lon2/Lat2

#==============================================================================
# Country/region masks
#==============================================================================
1001 MEXICO_MASK     $ROOT/MASKS/v2018-09/Mexico_Mask.001x001.nc           MASK     2000/1/1/0 C xy 1 1 -118/17/-95/33
1002 CANADA_MASK     $ROOT/MASKS/v2018-09/Canada_Mask.001x001.nc           MASK     2000/1/1/0 C xy 1 1 -141/40/-52/85
1006 ASIA_MASK       $ROOT/MASKS/v2018-09/MIX_Asia_mask.generic.025x025.nc MASK     2000/1/1/0 C xy 1 1 46/-12/180/82
1008 CONUS_MASK      $ROOT/MASKS/v2018-09/CONUS_Mask.001x001.nc            MASK     2000/1/1/0 C xy 1 1 -140/20/-50/60
1009 CONUS_MIRROR    $ROOT/MASKS/v2018-09/CONUS_Mask_Mirror.001x001.nc     MASK     2000/1/1/0 C xy 1 1 -140/20/-50/60
1010 MEX_MASK_MIRROR $ROOT/MASKS/v2018-09/Mexico_Mask_Mirror.001x001.nc    MASK     2000/1/1/0 C xy 1 1 -118/17/-95/33
1011 CAN_MASK_MIRROR $ROOT/MASKS/v2018-09/Canada_Mask_Mirror.001x001.nc    MASK     2000/1/1/0 C xy 1 1 -141/40/-52/85

### END SECTION MASKS ###
 
### END OF HEMCO INPUT FILE ###
#EOC
