#!/bin/bash

#SBATCH -c 24
#SBATCH -N 1
#SBATCH -t 0-12:00
#SBATCH -p jacob-dev
#SBATCH --mem=7000
#SBATCH --mail-type=END

#------------------------------------------------------------------------------
#                  GEOS-Chem Global Chemical Transport Model                  !
#------------------------------------------------------------------------------
#BOP
#
# !MODULE: v11-02.run
#
# !DESCRIPTION: This bash script submits a 1-month benchmark simulation
#\\
#\\
# !REMARKS:
# Designed to be used with the geosfp_4x5_standard run directory created
# by the GEOS-Chem Unit Tester. To use this script, you must first compile
# the GEOS-Chem code using the command "make -j4 mpbuild" to create the
# geos.mp executable.
#
# !CALLING SEQUENCE:
#  To submit run to the SLURM queue system:
#   sbatch v11-02.run
#
#  To run interactively:
#   v11-02.run
#
# !REVISION HISTORY:
#  Type 'gitk' at the prompt to browse the revision history.
#EOP
#------------------------------------------------------------------------------
#BOC

# Load environment modules
# This will load the IFORT11 compiler. If you use a different compiler, make
# sure to load the proper modules. Examples of other bash scripts for loading
# modules can be found in the ~/init/ directory.
source ~/.bashrc
source ~/init/init.gc-classic.ifort11

# Set the proper # of threads for OpenMP
# SLURM_CPUS_PER_TASK ensures this matches the number you set with -c above
export OMP_NUM_THREADS=$SLURM_CPUS_PER_TASK

#-------------------------------------------------
# Initialize
#-------------------------------------------------
# Define version ID
id="v11-02"

# Define GEOS-Chem log file
log="$id.log"

#-------------------------------------------------
# Start the simulation
#-------------------------------------------------
# Run GEOS-Chem and pipe output to log
srun -c $OMP_NUM_THREADS time -p ./geos.mp >> $log

# Echo end fin
echo '===> Run ended at' `date` >> $log

#-------------------------------------------------
# Clean up
#-------------------------------------------------
# Rename output file
if [ -f trac_avg.geosfp_4x5_benchmark.201307010000 ]; then
   mv -fv trac_avg.geosfp_4x5_benchmark.201307010000 trac_avg.$id
fi

# Echo info from computational cores to log file for displaying results
nodeName=`uname -n`
echo "# of CPUs: $OMP_NUM_THREADS"
echo "NodeName : $nodeName"
grep "vendor_id"  /proc/cpuinfo
grep "model name" /proc/cpuinfo
grep "cpu MHz"    /proc/cpuinfo

# Clear variable
unset id
unset log
unset nodename

# Exit normally
exit 0
#EOC
