#------------------------------------------------------------------------------
#                  Harvard-NASA Emissions Component (HEMCO)                   !
#------------------------------------------------------------------------------
#BOP
#
# !MODULE: HEMCO_Config.rc
#
# !DESCRIPTION: Contains configuration information for HEMCO. Define the
#  emissions inventories and corresponding file paths here. Entire 
#  configuration files can be inserted into this configuration file with
#  an '>>>include' statement, e.g. '>>>include HEMCO\_Config\_test.rc' 
#  The settings of include-files will be ignored.
#\\
#\\
# !REMARKS:
#  The following tokens will be replaced:
#  (1) ROOT    : Filepath to HEMCO root directory
#  (2) CFDIR   : Filepath to directory of this configuration file. 
#  (3) MET     : Met field type (from G-C compilation command)
#  (4) GRID    : Horizontal grid type (from G-C compilation command)
#  (5) SIM     : Simulation type (from G-C compilation command)
#  (6) NEST    : Nested-grid type (CH, EU, NA, SE)
#  (7) LNOX    : String for OTD/LIS lightning NOx files:
#                (a) For GEOS-5 this is either "geos5.1.0" or "geos5.2.0".  
#                (b) For other met fields, this is the same as MET.
#  (8) LEVRED  : String w/ the # of levels in the reduced GEOS-Chem grid
#                as used in some filenames (e.g. "23L", "30L", "47L")
#  (9) LEVFULL : String w/ the # of levels in the full GEOS-Chem grid
#                as used in some filenames (e.g. "55L", "72L")
# 
# !REMARKS:
#  Customized for the CO2 specialty simulation.
#
# !REVISION HISTORY: 
#  17 Apr 2014 - C. Keller   - Initial version
#  07 Oct 2014 - R. Yantosca - Now use HEMCO tokens $ROOT, $MET, $RES
#  20 Oct 2014 - R. Yantosca - Now read GFED3 data from GFED3/v2014-10
#  01 Dec 2014 - R. Yantosca - Bug fix: only specify one type of aviation
#  16 Feb 2015 - C. Keller   - (a) Added data 'collections' (brackets).
#                              (b) Moved section extension switches at the
#                                  beginning.
#                              (c) Removed section extension data. These fields
#                                  are now listed in section base emissions.
#                              (d) Fields can now cover multiple categories.
#  11 Mar 2015 - C. Keller   - Added 'negative' bracket, e.g. data within a
#                              bracket leading by '--' is only considered if 
#                              this collection name is disabled.
#  12 Mar 2015 - M. Sulprizio- Add MIX Asian anthropogenic emissions
#  13 Mar 2015 - C. Keller   - Added option to include other configuration 
#                              files by listing them as '>>>include CF_Name'.
#                              Added token '$CFDIR'. 
#  16 Mar 2015 - M. Sulprizio- Add mask file for MIX Asia region
#  16 Mar 2015 - M. Sulprizio- Add GFED4 entries from Christoph Keller
#EOP
#------------------------------------------------------------------------------
#BOC
###############################################################################
### BEGIN SECTION SETTINGS
###############################################################################
#
ROOT:                        {ROOT}
Logfile:                     HEMCO.log
DiagnPrefix:                 HEMCO_diagnostics
Wildcard:                    *
Separator:                   /
Unit tolerance:              1
Negative values:             2
Only unitless scale factors: false
Verbose:                     3
Show warnings:               true
#
END SECTION SETTINGS 

###############################################################################
### BEGIN SECTION EXTENSION SWITCHES
###############################################################################
###
### This section lists all emission extensions available to HEMCO and whether 
### they shall be used or not. Extension 'base' must have extension number 
### zero, all other extension numbers can be freely chosen. Data fields in 
### section 'base emissions' will only be read if the corresponding extension 
### (identified by ExtNr) is enabled. Similarly, fields grouped into data 
### collections ('(((CollectionName', ')))CollectionName') are only considered
### if the corresponding data collection is enabled in this section. Data
### listed within a disabled extension are always ignored, even if they are
### grouped in an enabled collection (e.g. GFED-4 data will never be considered
### if the GFED extension is disabled, even if the GFED4 option is set to true).
###
### It is possible to define collections that are only evaluated if a
### collection name is *not* enabled. This is achieved by leading the
### collection name with '.not.', e.g. '(((.not.FINN_daily' ...
### '))).not.FINN_daily' for FINN monthly data (only used if daily data is
### not being used). 
###
### The ExtNr provided in this section must match with the ExtNr assigned to
### the data listed in the base emissions sections. Otherwise, the listed files
### won't be read!
###############################################################################
# ExtNr ExtName           on/off  Species
0       Base              : on    *
    --> GENERIC           :       false
    --> ANNUAL            :       false
    --> MONTHLY           :       true
    --> MIX               :       false
    --> BBIO_DIURNAL      :       false
    --> BBIO_DAILY        :       true
    --> BIOFUEL           :       true
    --> NET_TERR_EXCH     :       true
    --> SHIP              :       true
    --> CO2CORR           :       true
# ----------------------------------------------------------------------------
111     GFED              : on    CO2bb
    --> GFED3             :       false
    --> GFED4             :       true
    --> GFED_daily        :       true
    --> GFED_3hourly      :       false
    --> CO scale factor   :       1.05
    --> POA scale factor  :       1.27
    --> NAP scale factor  :       2.75e-4
    --> hydrophilic BC    :       0.2
    --> hydrophilic OC    :       0.5
114     FINN              : off   CO2bb
    --> FINN_daily        :       true
    --> CO scale factor   :       1.0
    --> hydrophilic BC    :       0.2
    --> hydrophilic OC    :       0.5

END SECTION EXTENSION SWITCHES 

###############################################################################
### BEGIN SECTION BASE EMISSIONS 
###############################################################################

# ExtNr	Name sourceFile	sourceVar sourceTime C/R/E SrcDim SrcUnit Species ScalIDs Cat Hier

#===============================================================================
# --- FOSSIL FUEL EMISSIONS ---
#
# CO2 fossil fuel emissions were generated from bpch-files using scripts 
# FOSSIL_bpch2nc.sh and AVCORR.sh.
#
# Base emissions. These files do not contain aviation emissions!
#===============================================================================
(((GENERIC
0 FOSSILCO2_GENERIC  $ROOT/CO2/v2014-09/FOSSIL/fossilCO2.geos.2x25.noav.nc         CO2 1985/1/1/0         C xy kg/m2/s CO2ff   - 1 1 
0 FOSSILCORR_GENERIC -                                                             -   -                  - -  -       CO2corr 1 1 1
)))GENERIC

(((ANNUAL
0 FOSSILCO2_ANNUAL   $ROOT/CO2/v2014-09/FOSSIL/fossilCO2.annual.geos.2x25.noav.nc  CO2 1979-2009/1/1/0    C xy kg/m2/s CO2ff   - 1 2 
0 FOSSILCORR_ANNUAL  -                                                             -   -                  - -  -       CO2corr 1 1 2 
)))ANNUAL

(((MONTHLY
0 FOSSILCO2_MONTHLY  $ROOT/CO2/v2014-09/FOSSIL/fossilCO2.monthly.geos.2x25.noav.nc CO2 1979-2009/1-12/1/0 C xy kg/m2/s CO2ff   - 1 3 
0 FOSSILCORR_MONTHLY -                                                             -   -                  - -  -       CO2corr 1 1 3 
)))MONTHLY

#==============================================================================
# --- MIX v1.1 (Asia) ---
#==============================================================================
(((MIX
0 MIX_CO2_IND $ROOT/MIX/v2015-03/MIX_Asia_CO2.generic.025x025.nc CO2_INDUSTRY    2008-2010/1-12/1/0 C xy kg/m2/s CO2ff 1006 1 45
0 MIX_CO2_POW $ROOT/MIX/v2015-03/MIX_Asia_CO2.generic.025x025.nc CO2_POWER       2008-2010/1-12/1/0 C xy kg/m2/s CO2ff 1006 1 45
0 MIX_CO2_RES $ROOT/MIX/v2015-03/MIX_Asia_CO2.generic.025x025.nc CO2_RESIDENTIAL 2008-2010/1-12/1/0 C xy kg/m2/s CO2ff 1006 1 45
0 MIX_CO2_TRA $ROOT/MIX/v2015-03/MIX_Asia_CO2.generic.025x025.nc CO2_TRANSPORT   2008-2010/1-12/1/0 C xy kg/m2/s CO2ff 1006 1 45
)))MIX

#===============================================================================
# --- AVIATION EMISSIONS ---
#===============================================================================
(((GENERIC
0 FOSSILCO2_GENERIC_AVIATION $ROOT/CO2/v2014-09/FOSSIL/fossilCO2.geos.2x25.avonly.nc         CO2 1985/1/1/0         C xy kg/m2/s CO2ff - 2 1 
)))GENERIC

(((ANNUAL
0 FOSSILCO2_ANNUAL_AVIATION  $ROOT/CO2/v2014-09/FOSSIL/fossilCO2.annual.geos.2x25.avonly.nc  CO2 1979-2009/1/1/0    C xy kg/m2/s CO2ff - 2 2 
)))ANNUAL

(((MONTHLY
0 FOSSILCO2_MONTHLY_AVIATION  $ROOT/CO2/v2014-09/FOSSIL/fossilCO2.monthly.geos.2x25.avonly.nc CO2 1979-2009/1-12/1/0 C xy kg/m2/s CO2ff - 2 3 
)))MONTHLY

#===============================================================================
# --- OCEAN EXCHANGE EMISSIONS ---
#
# CO2 ocean exchange emissions were generated from bpch-files using scripts 
# OCEAN_bpch2nc.sh.
#===============================================================================
(((GENERIC
0 OCEANCO2_GENERIC      $ROOT/CO2/v2014-09/OCEAN/Ocean_CO2.nc            CO2 1985/1/1/0    C xy kg/m2/s CO2oc - 1 1
)))GENERIC

(((ANNUAL
0 OCEANCO2_TAKA_ANNUAL  $ROOT/CO2/v2014-09/OCEANTaka2009_CO2_Annual.nc  CO2 2000/1/1/0    C xy kg/m2/s CO2oc - 1 2
)))ANNUAL

(((MONTHLY
0 OCEANCO2_TAKA_MONTHLY $ROOT/CO2/v2014-09/OCEAN/Taka2009_CO2_Monthly.nc CO2 2000/1-12/1/0 C xy kg/m2/s CO2oc - 1 3
)))MONTHLY

#===============================================================================
# --- BALANCED BIOSPHERE EXCHANGE ---
#
# You can pick either diurnla or daily balanced biosphere exchange.
#===============================================================================
(((BBIO_DIURNAL
0 BBIOCO2       $ROOT/CO2/v2014-09/BBIO/BBIO_diurnal.CO2.nc CO2 1985/1/1/0       C xy kg/m2/s CO2bal - 1 1
)))BBIO_DIURNAL

(((BBIO_DAILY
0 BBIOCO2_DAILY $ROOT/CO2/v2014-09/BBIO/BBIO_daily_CO2.nc    CO2 2000/1-12/1-31/0 C xy kg/m2/s CO2bal - 1 1
)))BBIO_DAILY

#===============================================================================
# --- BIOFUEL EMISSIONS ---
#===============================================================================
(((BIOFUEL
0 BIOFUEL_CO2   $ROOT/CO2/v2014-09/biofuel_CO2.geos.1x1-1995.nc CO2 1995/1/1/0 C xy kg/m2/s CO2bf - 1 1
)))BIOFUEL

#===============================================================================
# --- NET TERRESTRIAL EXCHANGE ---
#===============================================================================
(((NET_TERR_EXCH
0 CO2_NET_TERRESTRIAL $ROOT/CO2/v2014-09/Net_terrestrial_exch_5.29Pg.generic.1x1.nc CO2 2000/1/1/0 C xy kg/m2/s CO2nte - 1 1
)))NET_TERR_EXCH

#===============================================================================
# --- SHIP EMISSIONS ---
#
# --> Both inventories are scaled with EDGAR annual CO2 ship scale factors.
#===============================================================================
(((SHIP
#0 CO2_SHIP_ARCTAS $ROOT/ARCTAS_SHIP/v2014-07/ARCTAS_ship_CO2_2008.generic.1x1.nc CO2 2008/1/1/0    C xy kg/m2/s CO2se 10 1 1
0 CO2_SHIP_ICOADS  $ROOT/ICOADS_SHIP/v2014-07/ICOADS_ship_CO2_2004.generic.1x1.nc CO2 2004/1-12/1/0 C xy kg/m2/s CO2se 10 1 1
)))SHIP

#===============================================================================
# --- AVIATION EMISSIONS ---
#===============================================================================
# defined above

#===============================================================================
# --- CO2 SURFACE CORRECTION FOR CO OXIDATION ---
#
# These emissions will be subtracted!  The fossil fuel correction is already 
# listed in the fossil fuel section. The CH4 data is converted to CO2 using 
# scale factor #20. The isoprene and monoterpene emissions are converted from 
# kgC to kg CO2 using scale factor #21.
#===============================================================================
(((CO2CORR
0 CO2CORR_LIVESTOCK $ROOT/CO2/v2014-09/CHEM/CH4_source.geos.2x25.nc       CH4_EMIS__CH4_004 2004/1-12/1/0 C xy kg/m2/s CO2corr 20 2 1
0 CO2CORR_WASTE     $ROOT/CO2/v2014-09/CHEM/CH4_source.geos.2x25.nc       CH4_EMIS__CH4_005 2004/1-12/1/0 C xy kg/m2/s CO2corr 20 2 1
0 CO2CORR_RICE      $ROOT/CO2/v2014-09/CHEM/CH4_source.geos.2x25.nc       CH4_EMIS__CH4_007 2004/1-12/1/0 C xy kg/m2/s CO2corr 20 2 1
0 CO2CORR_WETLANDS  $ROOT/CO2/v2014-09/CHEM/CH4_source.geos.2x25.nc       CH4_EMIS__CH4_010 2004/1-12/1/0 C xy kg/m2/s CO2corr 20 2 1
0 CO2CORR_NATURAL   $ROOT/CO2/v2014-09/CHEM/CH4_source.geos.2x25.nc       CH4_EMIS__CH4_012 2004/1-12/1/0 C xy kg/m2/s CO2corr 20 2 1

0 CO2CORR_ISOPRENE  $ROOT/CO2/v2014-09/CHEM/Isoprene-2004.geos.2x25.nc    BIOGSRCE__ISOP    2004/1-12/1/0 C xy kg/m2/s CO2corr 21/30 3 1
0 CO2CORR_MONOTERP  $ROOT/CO2/v2014-09/CHEM/Monoterpene-2004.geos.2x25.nc BIOGSRCE__MONOT   2004/1-12/1/0 C xy kg/m2/s CO2corr 21/30 3 1
)))CO2CORR

###############################################################################
### EXTENSION DATA (subsection of BASE EMISSIONS SECTION)
###
### These fields are needed by the extensions listed above. The assigned ExtNr 
### must match the ExtNr entry in section 'Extension switches'. These fields 
### are only read if the extension is enabled.  The fields are imported by the
### extensions by field name.  The name given here must match the name used 
### in the extension's source code. 
###############################################################################

#==============================================================================
# --- GFED3 biomass burning emissions (Extension 111) 
# NOTE: These are the base emissions in kgDM/m2/s.
#==============================================================================
111 GFED_HUMTROP    $ROOT/GFED3/v2014-10/GFED3_humtropmap.nc              humtrop           2000/1/1/0             C xy unitless  * - 1 1
(((GFED3   
111 GFED_WDL        $ROOT/GFED3/v2014-10/GFED3_gen.1x1.$YYYY.nc           GFED3_BB__WDL_DM  1997-2011/1-12/01/0    C xy kgDM/m2/s * - 1 1
111 GFED_AGW        $ROOT/GFED3/v2014-10/GFED3_gen.1x1.$YYYY.nc           GFED3_BB__AGW_DM  1997-2011/1-12/01/0    C xy kgDM/m2/s * - 1 1
111 GFED_DEF        $ROOT/GFED3/v2014-10/GFED3_gen.1x1.$YYYY.nc           GFED3_BB__DEF_DM  1997-2011/1-12/01/0    C xy kgDM/m2/s * - 1 1
111 GFED_FOR        $ROOT/GFED3/v2014-10/GFED3_gen.1x1.$YYYY.nc           GFED3_BB__FOR_DM  1997-2011/1-12/01/0    C xy kgDM/m2/s * - 1 1
111 GFED_PET        $ROOT/GFED3/v2014-10/GFED3_gen.1x1.$YYYY.nc           GFED3_BB__PET_DM  1997-2011/1-12/01/0    C xy kgDM/m2/s * - 1 1
111 GFED_SAV        $ROOT/GFED3/v2014-10/GFED3_gen.1x1.$YYYY.nc           GFED3_BB__SAV_DM  1997-2011/1-12/01/0    C xy kgDM/m2/s * - 1 1
)))GFED3  
(((GFED4
111 GFED_WDL        $ROOT/GFED4/v2015-03/GFED4_gen.025x025.$YYYY.nc       WDL_DM            2000-2013/1-12/01/0    C xy kg/m2/s   * - 1 1
111 GFED_AGW        $ROOT/GFED4/v2015-03/GFED4_gen.025x025.$YYYY.nc       AGW_DM            2000-2013/1-12/01/0    C xy kg/m2/s   * - 1 1
111 GFED_DEF        $ROOT/GFED4/v2015-03/GFED4_gen.025x025.$YYYY.nc       DEF_DM            2000-2013/1-12/01/0    C xy kg/m2/s   * - 1 1
111 GFED_FOR        $ROOT/GFED4/v2015-03/GFED4_gen.025x025.$YYYY.nc       FOR_DM            2000-2013/1-12/01/0    C xy kg/m2/s   * - 1 1
111 GFED_PET        $ROOT/GFED4/v2015-03/GFED4_gen.025x025.$YYYY.nc       PET_DM            2000-2013/1-12/01/0    C xy kg/m2/s   * - 1 1
111 GFED_SAV        $ROOT/GFED4/v2015-03/GFED4_gen.025x025.$YYYY.nc       SAV_DM            2000-2013/1-12/01/0    C xy kg/m2/s   * - 1 1
)))GFED4
(((GFED_daily
112 GFED_FRAC_DAY   $ROOT/GFED3/v2014-10/GFED3_dailyfrac_gen.1x1.$YYYY.nc GFED3_BB__DAYFRAC 2002-2011/1-12/1-31/0  C xy unitless  * - 1 1
)))GFED_daily
(((GFED_3hourly
113 GFED_FRAC_3HOUR $ROOT/GFED3/v2014-10/GFED3_3hrfrac_gen.1x1.$YYYY.nc   GFED3_BB__HRFRAC  2002-2011/1-12/01/0-23 C xy unitless  * - 1 1
)))GFED_3hourly

#==============================================================================
# --- FINN biomass burning emissions (Extension 114) 
#==============================================================================
(((.not.FINN_daily
114 FINN_VEGTYP1       $ROOT/FINN/v2014-07/FINN_monthly_05x05.nc fire_vegtype1 2007-2013/1-12/1/0    C xy kg/m2/s * - 1 1
114 FINN_VEGTYP2       $ROOT/FINN/v2014-07/FINN_monthly_05x05.nc fire_vegtype2 2007-2013/1-12/1/0    C xy kg/m2/s * - 1 1
114 FINN_VEGTYP3       $ROOT/FINN/v2014-07/FINN_monthly_05x05.nc fire_vegtype3 2007-2013/1-12/1/0    C xy kg/m2/s * - 1 1
114 FINN_VEGTYP4       $ROOT/FINN/v2014-07/FINN_monthly_05x05.nc fire_vegtype4 2007-2013/1-12/1/0    C xy kg/m2/s * - 1 1
114 FINN_VEGTYP5       $ROOT/FINN/v2014-07/FINN_monthly_05x05.nc fire_vegtype5 2007-2013/1-12/1/0    C xy kg/m2/s * - 1 1
114 FINN_VEGTYP9       $ROOT/FINN/v2014-07/FINN_monthly_05x05.nc fire_vegtype9 2007-2013/1-12/1/0    C xy kg/m2/s * - 1 1
))).not.FINN_daily
(((FINN_daily
115 FINN_DAILY_VEGTYP1 $ROOT/FINN/v2014-07/FINN_daily_05x05.nc   fire_vegtype1 2007-2013/1-12/1-31/0 C xy kg/m2/s * - 1 1
115 FINN_DAILY_VEGTYP2 $ROOT/FINN/v2014-07/FINN_daily_05x05.nc   fire_vegtype2 2007-2013/1-12/1-31/0 C xy kg/m2/s * - 1 1
115 FINN_DAILY_VEGTYP3 $ROOT/FINN/v2014-07/FINN_daily_05x05.nc   fire_vegtype3 2007-2013/1-12/1-31/0 C xy kg/m2/s * - 1 1
115 FINN_DAILY_VEGTYP4 $ROOT/FINN/v2014-07/FINN_daily_05x05.nc   fire_vegtype4 2007-2013/1-12/1-31/0 C xy kg/m2/s * - 1 1
115 FINN_DAILY_VEGTYP5 $ROOT/FINN/v2014-07/FINN_daily_05x05.nc   fire_vegtype5 2007-2013/1-12/1-31/0 C xy kg/m2/s * - 1 1
115 FINN_DAILY_VEGTYP9 $ROOT/FINN/v2014-07/FINN_daily_05x05.nc   fire_vegtype9 2007-2013/1-12/1-31/0 C xy kg/m2/s * - 1 1
)))FINN_daily

###############################################################################
### NON-EMISSIONS DATA (subsection of BASE EMISSIONS SECTION)
###
### Non-emissions data. The following fields are read through HEMCO but do 
### not contain emissions data. The extension number is set to wildcard 
### character denoting that these fields will not be considered for emission 
### calculation. A given entry is only read if the assigned species name is 
### an HEMCO species.
###############################################################################

#==============================================================================
# --- Time zones (offset to UTC) ---
#==============================================================================
* TIMEZONES $ROOT/TIMEZONES/v2015-02/timezones_1x1.nc UTC_OFFSET 2000/1/1/0 C xy count * - 1 1

#===============================================================================
# --- CHEMICAL PRODUCTION FROM CO OXIDATION ---
#===============================================================================
* CO2_COPROD $ROOT/CO2/v2014-09/CHEM/CO2_prod_rates.geos5.2x25.47L.nc PORL_L_S__LCO 2004-2009/1-12/1/0 C xyz kg/m3/s CO2ch - 1 1

END SECTION BASE EMISSIONS 

###############################################################################
### BEGIN SECTION SCALE FACTORS 
###############################################################################

# ScalID Name sourceFile sourceVar sourceTime C/R/E SrcDim SrcUnit Oper

#===============================================================================
# --- FOSSIL FUEL CORRECTION FACTOR ---
#===============================================================================
1 CO2_FOSSFUEL_CORR 0.0489 - - - xy 1 1

#===============================================================================
# --- EDGAR SHIP ANNUAL SCALE FACTOR ---
#
# These are based on a linear fit to 1985 to 2002 values from 
# Endresen et al. (2007).
#===============================================================================

10 CO2_SHIP_EDGAR_ANNSCALE 1.043/1.068/1.094/1.128/1.154/1.180/1.205/1.231/1.265/1.291/1.316/1.342/1.368/1.393/1.427/1.453/1.479/1.504/1.530/1.556/1.590/1.615/1.641/1.667/1.641 - 1985-2009/1/1/0 R xy 1 1

#===============================================================================
# --- CONVERSION FACTORS ---
#===============================================================================
20 CH4TOCO2 2.75   - - - xy 1 1
21 CTOCO2   3.6667 - - - xy 1 1

#===============================================================================
# --- NMHC SCALE FACTOR ---
#===============================================================================
30 NMHCSCALE 0.3333 - - - xy 1 1

END SECTION SCALE FACTORS 

###############################################################################
### BEGIN SECTION MASKS 
###############################################################################

# ScalID Name sourceFile sourceVar sourceTime C/R/E SrcDim SrcUnit Oper Lon1/Lat1/Lon2/Lat2

#==============================================================================
# Country/region masks
#==============================================================================
1000 EMEP_MASK   $ROOT/MASKS/v2014-07/EMEP_mask.geos.1x1.nc            MASK 2000/1/1/0 C xy unitless 1 -30/30/45/70
1001 MEXICO_MASK $ROOT/MASKS/v2014-07/BRAVO.MexicoMask.generic.1x1.nc  MASK 2000/1/1/0 C xy unitless 1 -118/17/-95/33
1002 CANADA_MASK $ROOT/MASKS/v2014-07/Canada_mask.geos.1x1.nc          MASK 2000/1/1/0 C xy unitless 1 -141/40/-52/85
1003 SEASIA_MASK $ROOT/MASKS/v2014-07/SE_Asia_mask.generic.1x1.nc      MASK 2000/1/1/0 C xy unitless 1  60/-12/153/55
1004 NA_MASK     $ROOT/MASKS/v2014-07/NA_mask.geos.1x1.nc              MASK 2000/1/1/0 C xy unitless 1 -165/10/-40/90
1005 USA_MASK    $ROOT/MASKS/v2014-07/usa.mask.nei2005.geos.1x1.nc     MASK 2000/1/1/0 C xy unitless 1 -165/10/-40/90
1006 ASIA_MASK   $ROOT/MASKS/v2014-07/MIX_Asia_mask.generic.025x025.nc MASK 2000/1/1/0 C xy unitless 1 46/-12/180/82

END SECTION MASKS 
 
### END OF HEMCO INPUT FILE ###
#EOC
