#------------------------------------------------------------------------------
#                  Harvard-NASA Emissions Component (HEMCO)                   !
#------------------------------------------------------------------------------
#BOP
#
# !MODULE: HEMCO_Config.rc
#
# !DESCRIPTION: Contains configuration information for HEMCO. Define the
#  emissions inventories and corresponding file paths here. Entire 
#  configuration files can be inserted into this configuration file with
#  an '>>>include' statement, e.g. '>>>include HEMCO\_Config\_test.rc' 
#  The settings of include-files will be ignored.
#\\
#\\
# !REMARKS:
#  The following tokens will be replaced:
#  (1) ROOT    : Filepath to HEMCO root directory
#  (2) CFDIR   : Filepath to directory of this configuration file. 
#  (3) MET     : Met field type (from G-C compilation command)
#  (4) GRID    : Horizontal grid type (from G-C compilation command)
#  (5) SIM     : Simulation type (from G-C compilation command)
#  (6) NEST    : Nested-grid type (CH, EU, NA, SE)
#  (7) LNOX    : String for OTD/LIS lightning NOx files:
#                (a) For GEOS-5 this is either "geos5.1.0" or "geos5.2.0".  
#                (b) For other met fields, this is the same as MET.
#  (8) LEVRED  : String w/ the # of levels in the reduced GEOS-Chem grid
#                as used in some filenames (e.g. "23L", "30L", "47L")
#  (9) LEVFULL : String w/ the # of levels in the full GEOS-Chem grid
#                as used in some filenames (e.g. "55L", "72L")
# 
# !REMARKS:# !REMARKS:
#  Customized for the nested North America CH4 simulation.
#
# !REVISION HISTORY: 
#  19 Aug 2014 - M. Sulprizio- Initial version
#  23 Sep 2014 - R. Yantosca - Add replaceable tokens to file paths
#  20 Oct 2014 - R. Yantosca - Now read data from GFED3/v2014-10
#  16 Feb 2015 - C. Keller   - (a) Added data 'collections' (brackets).
#                              (b) Moved section extension switches at the
#                                  beginning.
#                              (c) Removed section extension data. These fields
#                                  are now listed in section base emissions.
#                              (d) Fields can now cover multiple categories.
#  19 Feb 2015 - R. Yantosca - Added EDGAR and FUNG collections so that you
#                              can turn those off at the top of the file
#  02 Mar 2015 - R. Yantosca - Ad RCP emissions info
#  11 Mar 2015 - M. Sulprizio- Add MIX Asian anthropogenic emissions
#  11 Mar 2015 - C. Keller   - Added 'negative' bracket, e.g. data within a
#                              bracket leading by '--' is only considered if 
#                              this collection name is disabled.
#  12 Mar 2015 - R. Yantosca - Now read the 2x25 72-layer OH file
#  13 Mar 2015 - C. Keller   - Added option to include other configuration 
#                              files by listing them as '>>>include CF_Name'.
#                              Added token '$CFDIR'. 
#  16 Mar 2015 - M. Sulprizio- Add mask file for MIX Asia region
#  16 Mar 2015 - M. Sulprizio- Add GFED4 entries from Christoph Keller
#  27 Mar 2015 - C. Keller   - Warnings are now 0-3
#  21 Apr 2015 - R. Yantosca - Now can use extension names as switches
#  21 Apr 2015 - R. Yantosca - Now make section endings more visible
#  19 May 2015 - R. Yantosca - Now use tokens for VERBOSE, WARNINGS 
#  21 May 2015 - R. Yantosca - Now use correct filenames for FINNv1
#EOP
#------------------------------------------------------------------------------
#BOC
###############################################################################
### BEGIN SECTION SETTINGS
###############################################################################

ROOT:                        {ROOT}
Logfile:                     HEMCO.log
DiagnPrefix:                 HEMCO_diagnostics
DiagnFreq:                   End
Wildcard:                    *
Separator:                   /
Unit tolerance:              1
Negative values:             2
Only unitless scale factors: false
Verbose:                     {VERBOSE}
Warnings:                    {WARNINGS}

### END SECTION SETTINGS ###

###############################################################################
### BEGIN SECTION EXTENSION SWITCHES
###############################################################################
###
### This section lists all emission extensions available to HEMCO and whether 
### they shall be used or not. Extension 'base' must have extension number 
### zero, all other extension numbers can be freely chosen. Data fields in 
### section 'base emissions' will only be read if the corresponding extension 
### (identified by ExtNr) is enabled. Similarly, fields grouped into data 
### collections ('(((CollectionName', ')))CollectionName') are only considered
### if the corresponding data collection is enabled in this section. Data
### listed within a disabled extension are always ignored, even if they are
### grouped in an enabled collection (e.g. GFED-4 data will never be considered
### if the GFED extension is disabled, even if the GFED4 option is set to true).
###
### It is possible to define collections that are only evaluated if a
### collection name is *not* enabled. This is achieved by leading the
### collection name with '.not.', e.g. '(((.not.FINN_daily' ...
### '))).not.FINN_daily' for FINN monthly data (only used if daily data is
### not being used). 
###
### The ExtNr provided in this section must match with the ExtNr assigned to
### the data listed in the base emissions sections. Otherwise, the listed files
### won't be read!
###############################################################################
# ExtNr ExtName           on/off  Species
0       Base              : on    *
    --> EDGAR             :       true
    --> MIX               :       false
    --> FUNG              :       true
    --> RCP_3PD           :       false 
    --> RCP_45            :       false
    --> RCP_60            :       false
    --> RCP_85            :       false
# ----------------------------------------------------------------------------
111     GFED              : on    CH4
    --> GFED3             :       false
    --> GFED4             :       true
    --> GFED_daily        :       true
    --> GFED_3hourly      :       false
    --> CO scale factor   :       1.05
    --> POA scale factor  :       1.27
    --> NAP scale factor  :       2.75e-4
    --> hydrophilic BC    :       0.2
    --> hydrophilic OC    :       0.5
114     FINN              : off   CH4
    --> FINN_daily        :       true
    --> CO scale factor   :       1.0
    --> hydrophilic BC    :       0.2
    --> hydrophilic OC    :       0.5
121     CH4_WETLANDS      : on    CH4
    --> Wetlands          :       true
    --> Rice              :       true

### END SECTION EXTENSION SWITCHES ###

###############################################################################
### BEGIN SECTION BASE EMISSIONS 
###############################################################################

# ExtNr	Name sourceFile	sourceVar sourceTime C/R/E SrcDim SrcUnit Species ScalIDs Cat Hier

#==============================================================================
# --- EDGAR v4.2 emissions, various sectors ---
#==============================================================================
(((EDGAR
### Gas and oil ###
0 CH4_GAS__1B2a         $ROOT/CH4/v2014-09/v42_CH4.0.1x0.1.nc  ch4_1B2a       2004-2008/1/1/0 C xy kg/m2/s CH4 - 1 1
0 CH4_GAS__1B2b         $ROOT/CH4/v2014-09/v42_CH4.0.1x0.1.nc  ch4_1B2b       2004-2008/1/1/0 C xy kg/m2/s CH4 - 1 1

### Coal mines ###
0 CH4_COAL__1B1         $ROOT/CH4/v2014-09/v42_CH4.0.1x0.1.nc  ch4_1B1        2004-2008/1/1/0 C xy kg/m2/s CH4 - 2 1

### Livestock ###
0 CH4_LIVESTOCK__4A     $ROOT/CH4/v2014-09/v42_CH4.0.1x0.1.nc  ch4_4A         2004-2008/1/1/0 C xy kg/m2/s CH4 - 3 1
0 CH4_LIVESTOCK__4B     $ROOT/CH4/v2014-09/v42_CH4.0.1x0.1.nc  ch4_4B         2004-2008/1/1/0 C xy kg/m2/s CH4 - 3 1

### Waste ###
0 CH4_WASTE__6A_6C      $ROOT/CH4/v2014-09/v42_CH4.0.1x0.1.nc  ch4_6A_6C      2004-2008/1/1/0 C xy kg/m2/s CH4 - 4 1
0 CH4_WASTE__6B         $ROOT/CH4/v2014-09/v42_CH4.0.1x0.1.nc  ch4_6B         2004-2008/1/1/0 C xy kg/m2/s CH4 - 4 1

### Residential biofuel ###
0 CH4_BIOFUEL__1A4      $ROOT/CH4/v2014-09/v42_CH4.0.1x0.1.nc  ch4_1A4        2004-2008/1/1/0 C xy kg/m2/s CH4 - 5 1

### Other sectors ###
0 CH4_OTHER__1A1_1A2    $ROOT/CH4/v2014-09/v42_CH4.0.1x0.1.nc  ch4_1A1_1A2    2004-2008/1/1/0 C xy kg/m2/s CH4 - 6 1
0 CH4_OTHER__1A3a_c_d_e $ROOT/CH4/v2014-09/v42_CH4.0.1x0.1.nc  ch4_1A3a_c_d_e 2004-2008/1/1/0 C xy kg/m2/s CH4 - 6 1
0 CH4_OTHER__1A3b       $ROOT/CH4/v2014-09/v42_CH4.0.1x0.1.nc  ch4_1A3b       2004-2008/1/1/0 C xy kg/m2/s CH4 - 6 1
0 CH4_OTHER__2          $ROOT/CH4/v2014-09/v42_CH4.0.1x0.1.nc  ch4_2          2004-2008/1/1/0 C xy kg/m2/s CH4 - 6 1
0 CH4_OTHER__7A         $ROOT/CH4/v2014-09/v42_CH4.0.1x0.1.nc  ch4_7A         2004-2008/1/1/0 C xy kg/m2/s CH4 - 6 1
)))EDGAR

#==============================================================================
# --- MIX v1.1 (Asia) ---
#==============================================================================
(((MIX
0 MIX_CH4_IND $ROOT/MIX/v2015-03/MIX_Asia_CH4.generic.025x025.nc   CH4_INDUSTRY    2008/1-12/1/0 C xy kg/m2/s CH4 1006 1 45
0 MIX_CH4_POW $ROOT/MIX/v2015-03/MIX_Asia_CH4.generic.025x025.nc   CH4_POWER       2008/1-12/1/0 C xy kg/m2/s CH4 1006 1 45
0 MIX_CH4_RES $ROOT/MIX/v2015-03/MIX_Asia_CH4.generic.025x025.nc   CH4_RESIDENTIAL 2008/1-12/1/0 C xy kg/m2/s CH4 1006 1 45
0 MIX_CH4_TRA $ROOT/MIX/v2015-03/MIX_Asia_CH4.generic.025x025.nc   CH4_TRANSPORT   2008/1-12/1/0 C xy kg/m2/s CH4 1006 1 45
0 MIX_CH4_AGR $ROOT/MIX/v2015-03/MIX_Asia_CH4.generic.025x025.nc   CH4_AGRICULTURE 2008/1-12/1/0 C xy kg/m2/s CH4 1006 1 45
)))MIX

#==============================================================================
# --- Soil absorption & termites from Fung et al, 1991 ---
#
# NOTE: Multiply soil absorption by -1 to get a "negative" flux.
#==============================================================================
(((FUNG
0 CH4_SOILABSORBTION $ROOT/CH4/v2014-09/$RES/soilabs.geos.$RES.nc  CH4 1985/1/1/0 C xy kg/m2/s CH4 1 7 1
0 CH4_TERMITES       $ROOT/CH4/v2014-09/$RES/termites.geos.$RES.nc CH4 1985/1/1/0 C xy kg/m2/s CH4 - 8 1
)))FUNG

#==============================================================================
# --- RCP future emission scenarios ---
#==============================================================================
(((RCP_3PD
0 RCP3PD_CH4 $ROOT/RCP/v2015-02/RCP_3PD/RCPs_anthro_CH4_2005-2100_23474.nc  ACCMIP 2005-2100/1/1/0 I xy kg/m2/s  CH4 - 1 1
)))RCP_3PD

(((RCP_45 
0 RCP45_CH4  $ROOT/RCP/v2015-02/RCP_45/RCPs_anthro_CH4_2005-2100_27424.nc   ACCMIP 2005-2100/1/1/0 I xy kg/m2/s  CH4 - 1 1
)))RCP_45

(((RCP_60 
0 RCP60_CH4  $ROOT/RCP/v2015-02/RCP_60/RCPs_anthro_CH4_2005-2100_43190.nc   ACCMIP 2005-2100/1/1/0 I xy kg/m2/s  CH4 - 1 1
)))RCP_60

(((RCP_85 
0 RCP85_CH4  $ROOT/RCP/v2015-02/RCP_85/RCPs_anthro_CH4_2005-2100_43533.nc   ACCMIP 2005-2100/1/1/0 I xy kg/m2/s  CH4 - 1 1
)))RCP_85

###############################################################################
### EXTENSION DATA (subsection of BASE EMISSIONS SECTION)
###
### These fields are needed by the extensions listed above. The assigned ExtNr 
### must match the ExtNr entry in section 'Extension switches'. These fields 
### are only read if the extension is enabled.  The fields are imported by the
### extensions by field name.  The name given here must match the name used 
### in the extension's source code. 
###############################################################################

#==============================================================================
# --- GFED biomass burning emissions (Extension 111) 
# NOTE: These are the base emissions in kgDM/m2/s.
#==============================================================================
111 GFED_HUMTROP    $ROOT/GFED3/v2014-10/GFED3_humtropmap.nc              humtrop           2000/1/1/0             C xy 1         * - 1 1

(((GFED3   
111 GFED_WDL        $ROOT/GFED3/v2014-10/GFED3_gen.1x1.$YYYY.nc           GFED3_BB__WDL_DM  1997-2011/1-12/01/0    C xy kgDM/m2/s * - 1 1
111 GFED_AGW        $ROOT/GFED3/v2014-10/GFED3_gen.1x1.$YYYY.nc           GFED3_BB__AGW_DM  1997-2011/1-12/01/0    C xy kgDM/m2/s * - 1 1
111 GFED_DEF        $ROOT/GFED3/v2014-10/GFED3_gen.1x1.$YYYY.nc           GFED3_BB__DEF_DM  1997-2011/1-12/01/0    C xy kgDM/m2/s * - 1 1
111 GFED_FOR        $ROOT/GFED3/v2014-10/GFED3_gen.1x1.$YYYY.nc           GFED3_BB__FOR_DM  1997-2011/1-12/01/0    C xy kgDM/m2/s * - 1 1
111 GFED_PET        $ROOT/GFED3/v2014-10/GFED3_gen.1x1.$YYYY.nc           GFED3_BB__PET_DM  1997-2011/1-12/01/0    C xy kgDM/m2/s * - 1 1
111 GFED_SAV        $ROOT/GFED3/v2014-10/GFED3_gen.1x1.$YYYY.nc           GFED3_BB__SAV_DM  1997-2011/1-12/01/0    C xy kgDM/m2/s * - 1 1
)))GFED3  

(((GFED4
111 GFED_WDL        $ROOT/GFED4/v2015-03/GFED4_gen.025x025.$YYYY.nc       WDL_DM            2000-2013/1-12/01/0    C xy kg/m2/s   * - 1 1
111 GFED_AGW        $ROOT/GFED4/v2015-03/GFED4_gen.025x025.$YYYY.nc       AGW_DM            2000-2013/1-12/01/0    C xy kg/m2/s   * - 1 1
111 GFED_DEF        $ROOT/GFED4/v2015-03/GFED4_gen.025x025.$YYYY.nc       DEF_DM            2000-2013/1-12/01/0    C xy kg/m2/s   * - 1 1
111 GFED_FOR        $ROOT/GFED4/v2015-03/GFED4_gen.025x025.$YYYY.nc       FOR_DM            2000-2013/1-12/01/0    C xy kg/m2/s   * - 1 1
111 GFED_PET        $ROOT/GFED4/v2015-03/GFED4_gen.025x025.$YYYY.nc       PET_DM            2000-2013/1-12/01/0    C xy kg/m2/s   * - 1 1
111 GFED_SAV        $ROOT/GFED4/v2015-03/GFED4_gen.025x025.$YYYY.nc       SAV_DM            2000-2013/1-12/01/0    C xy kg/m2/s   * - 1 1
)))GFED4

(((GFED_daily
111 GFED_FRAC_DAY   $ROOT/GFED3/v2014-10/GFED3_dailyfrac_gen.1x1.$YYYY.nc GFED3_BB__DAYFRAC 2002-2011/1-12/1-31/0  C xy 1         * - 1 1
)))GFED_daily

(((GFED_3hourly
111 GFED_FRAC_3HOUR $ROOT/GFED3/v2014-10/GFED3_3hrfrac_gen.1x1.$YYYY.nc   GFED3_BB__HRFRAC  2002-2011/1-12/01/0-23 C xy 1         * - 1 1
)))GFED_3hourly

#==============================================================================
# --- FINN biomass burning emissions (Extension 114) 
#==============================================================================
(((.not.FINN_daily
114 FINN_VEGTYP1       $ROOT/FINN/v2015-02/FINN_monthly_$YYYY_0.25x0.25.compressed.nc fire_vegtype1 $YYYY/1-12/1/0 C xy kg/m2/s * - 1 1
114 FINN_VEGTYP2       $ROOT/FINN/v2015-02/FINN_monthly_$YYYY_0.25x0.25.compressed.nc fire_vegtype2 $YYYY/1-12/1/0 C xy kg/m2/s * - 1 1
114 FINN_VEGTYP3       $ROOT/FINN/v2015-02/FINN_monthly_$YYYY_0.25x0.25.compressed.nc fire_vegtype3 $YYYY/1-12/1/0 C xy kg/m2/s * - 1 1
114 FINN_VEGTYP4       $ROOT/FINN/v2015-02/FINN_monthly_$YYYY_0.25x0.25.compressed.nc fire_vegtype4 $YYYY/1-12/1/0 C xy kg/m2/s * - 1 1
114 FINN_VEGTYP5       $ROOT/FINN/v2015-02/FINN_monthly_$YYYY_0.25x0.25.compressed.nc fire_vegtype5 $YYYY/1-12/1/0 C xy kg/m2/s * - 1 1
114 FINN_VEGTYP9       $ROOT/FINN/v2015-02/FINN_monthly_$YYYY_0.25x0.25.compressed.nc fire_vegtype9 $YYYY/1-12/1/0 C xy kg/m2/s * - 1 1
))).not.FINN_daily

(((FINN_daily
114 FINN_DAILY_VEGTYP1 $ROOT/FINN/v2015-02/FINN_daily_$YYYY_0.25x0.25.compressed.nc   fire_vegtype1 $YYYY/1-12/1/0 C xy kg/m2/s * - 1 1
114 FINN_DAILY_VEGTYP2 $ROOT/FINN/v2015-02/FINN_daily_$YYYY_0.25x0.25.compressed.nc   fire_vegtype2 $YYYY/1-12/1/0 C xy kg/m2/s * - 1 1
114 FINN_DAILY_VEGTYP3 $ROOT/FINN/v2015-02/FINN_daily_$YYYY_0.25x0.25.compressed.nc   fire_vegtype3 $YYYY/1-12/1/0 C xy kg/m2/s * - 1 1
114 FINN_DAILY_VEGTYP4 $ROOT/FINN/v2015-02/FINN_daily_$YYYY_0.25x0.25.compressed.nc   fire_vegtype4 $YYYY/1-12/1/0 C xy kg/m2/s * - 1 1
114 FINN_DAILY_VEGTYP5 $ROOT/FINN/v2015-02/FINN_daily_$YYYY_0.25x0.25.compressed.nc   fire_vegtype5 $YYYY/1-12/1/0 C xy kg/m2/s * - 1 1
114 FINN_DAILY_VEGTYP9 $ROOT/FINN/v2015-02/FINN_daily_$YYYY_0.25x0.25.compressed.nc   fire_vegtype9 $YYYY/1-12/1/0 C xy kg/m2/s * - 1 1
)))FINN_daily

#==============================================================================
# --- CH4 wetland and rice emissions (Extension 121) 
#==============================================================================
121 CH4_RICE     $ROOT/CH4/v2014-09/v42_CH4.0.1x0.1.nc                    ch4_4C_4D 2004-2008/1/1/0    C xy kg/m2/s  CH4 - 1 1
121 CH4_GWET_YR  $ROOT/CH4/v2014-09/$RES/GWETTOP.annual.geos5.$RES_NA.nc  GWETTOP   2004-2011/1/1/0    C xy 1        *   - 1 1
121 CH4_GWET_MT  $ROOT/CH4/v2014-09/$RES/GWETTOP.monthly.geos5.$RES_NA.nc GWETTOP   2004-2011/1-12/1/0 C xy 1        *   - 1 1
121 CH4_MEAN_T   $ROOT/CH4/v2014-09/$RES/TSKIN.annual.geos5.$RES_NA.nc    TSKIN     2004-2011/1/1/0    C xy 1        *   - 1 1
121 CH4_WETFRAC  $ROOT/CH4/v2014-09/$RES/Wetfrac.$RES.nc                  WETFRAC   2000/1/1/0         C xy 1        *   - 1 1
121 CH4_LITTER_C $ROOT/CH4/v2014-09/$RES/Carbon_litter.$RES.nc            CARBON    2000/1/1/0         C xy kgC/m2/s *   - 1 1
121 CH4_SOIL_C   $ROOT/CH4/v2014-09/$RES/Carbon_soil.$RES.nc              CARBON    2000/1/1/0         C xy kgC/m2/s *   - 1 1

###############################################################################
### NON-EMISSIONS DATA (subsection of BASE EMISSIONS SECTION)
###
### Non-emissions data. The following fields are read through HEMCO but do 
### not contain emissions data. The extension number is set to wildcard 
### character denoting that these fields will not be considered for emission 
### calculation. A given entry is only read if the assigned species name is 
### an HEMCO species.
###############################################################################

#==============================================================================
# --- Time zones (offset to UTC) ---
#==============================================================================
* TIMEZONES $ROOT/TIMEZONES/v2015-02/timezones_1x1.nc UTC_OFFSET 2000/1/1/0 C xy count * - 1 1

#==============================================================================
# --- Quantities needed for CH4 chemistry ---
#==============================================================================
* CH4_LOSS   $ROOT/CH4/v2014-09/4x5/gmi.ch4loss.geos5_47L.4x5.nc          CH4loss 1985/1-12/1/0 C xyz s-1   * - 1 1
* GLOBAL_OH  $ROOT/OH/v2014-09/v7-02-03.GMI/OH_3Dglobal.geos5.72L.2x25.nc OH      1985/1-12/1/0 C xyz kg/m3 * - 1 1

### END SECTION BASE EMISSIONS ###

###############################################################################
### BEGIN SECTION SCALE FACTORS 
###############################################################################

# ScalID Name sourceFile sourceVar sourceTime C/R/E SrcDim SrcUnit Oper
1 NEGATIVE -1.0 - - - xy 1 1

### END SECTION SCALE FACTORS ###

###############################################################################
### BEGIN SECTION MASKS 
###############################################################################

# ScalID Name sourceFile sourceVar sourceTime C/R/E SrcDim SrcUnit Oper Lon1/Lat1/Lon2/Lat2

#==============================================================================
# Country/region masks
#==============================================================================
1000 EMEP_MASK   $ROOT/MASKS/v2014-07/EMEP_mask.geos.1x1.nc            MASK 2000/1/1/0 C xy unitless 1 -30/30/45/70
1001 MEXICO_MASK $ROOT/MASKS/v2014-07/BRAVO.MexicoMask.generic.1x1.nc  MASK 2000/1/1/0 C xy unitless 1 -118/17/-95/33
1002 CANADA_MASK $ROOT/MASKS/v2014-07/Canada_mask.geos.1x1.nc          MASK 2000/1/1/0 C xy unitless 1 -141/40/-52/85
1003 SEASIA_MASK $ROOT/MASKS/v2014-07/SE_Asia_mask.generic.1x1.nc      MASK 2000/1/1/0 C xy unitless 1  60/-12/153/55
1004 NA_MASK     $ROOT/MASKS/v2014-07/NA_mask.geos.1x1.nc              MASK 2000/1/1/0 C xy unitless 1 -165/10/-40/90
1005 USA_MASK    $ROOT/MASKS/v2014-07/usa.mask.nei2005.geos.1x1.nc     MASK 2000/1/1/0 C xy unitless 1 -165/10/-40/90
1006 ASIA_MASK   $ROOT/MASKS/v2014-07/MIX_Asia_mask.generic.025x025.nc MASK 2000/1/1/0 C xy unitless 1 46/-12/180/82

### END SECTION MASKS ###
 
### END OF HEMCO INPUT FILE ###
#EOC