#------------------------------------------------------------------------------
#                  Harvard-NASA Emissions Component (HEMCO)                   !
#------------------------------------------------------------------------------
#BOP
#
# !MODULE: HEMCO_Config.rc
#
# !DESCRIPTION: Contains configuration information for HEMCO.  Define the
#  emissions inventories and corresponding file paths here.
#\\
#\\
# !REMARKS:
#  The following tokens will be replaced:
#  (1) ROOT    : Filepath to HEMCO root directory
#  (2) MET     : Met field type (from G-C compilation command)
#  (3) GRID    : Horizontal grid type (from G-C compilation command)
#  (4) SIM     : Simulation type (from G-C compilation command)
#  (5) NEST    : Nested-grid type (CH, EU, NA, SE)
#  (6) LNOX    : String for OTD/LIS lightning NOx files:
#                (a) For GEOS-5 this is either "geos5.1.0" or "geos5.2.0".  
#                (b) For other met fields, this is the same as MET.
#  (7) LEVRED  : String w/ the # of levels in the reduced GEOS-Chem grid
#                as used in some filenames (e.g. "23L", "30L", "47L")
#  (8) LEVFULL : String w/ the # of levels in the full GEOS-Chem grid
#                as used in some filenames (e.g. "55L", "72L")
# 
# !REMARKS:
#  Customized for the tagO3 simulation. 
#
# !REVISION HISTORY: 
#  23 Sep 2014 - C. Keller   - Initial version
#  07 Oct 2014 - R. Yantosca - Now use HEMCO tokens $ROOT, $MET, $RES
#EOP
#------------------------------------------------------------------------------
#BOC


###############################################################################
### BEGIN SECTION SETTINGS
###############################################################################
#
ROOT:                        {ROOT}
Logfile:                     HEMCO.log
DiagnPrefix:                 HEMCO_diagnostics
Wildcard:                    *
Separator:                   /
Unit tolerance:              0
Negative values:             0
Only unitless scale factors: false
Verbose:                     false 
Track code:                  false 
Show warnings:               true
#
END SECTION SETTINGS 

###############################################################################
### BEGIN SECTION BASE EMISSIONS 
###############################################################################
# ExtNr	Name sourceFile	sourceVar sourceTime C/R/E SrcDim SrcUnit Species ScalIDs Cat Hier

#==============================================================================
# --- O3 production and loss rates ---
#==============================================================================
0 O3_PROD $ROOT/TAGGED_O3/v2014-09/O3_PRODLOSS.$MET.4x5.nc POX 2004/1-12/1-31/0 C xyz kg/m3/s * - 1 1
0 O3_LOSS $ROOT/TAGGED_O3/v2014-09/O3_PRODLOSS.$MET.4x5.nc LOX 2004/1-12/1-31/0 C xyz  1/m3/s * - 1 1
#
END SECTION BASE EMISSIONS 

###############################################################################
### BEGIN SECTION SCALE FACTORS 
###############################################################################
# ScalID Name sourceFile sourceVar sourceTime C/R/E SrcDim SrcUnit Oper
#
END SECTION SCALE FACTORS 

###############################################################################
### BEGIN SECTION MASKS 
###############################################################################
# ScalID Name sourceFile sourceVar sourceTime C/R/E SrcDim SrcUnit Oper Lon1/Lat1/Lon2/Lat2
#
END SECTION MASKS 

###############################################################################
### BEGIN SECTION EXTENSION SWITCHES
###
### Make sure that the ExtNr provided here matches with the ExtNr provided 
### in the base emissions sections. Otherwise, the listed files won't be read!
###############################################################################
# ExtNr ExtName           on/off  Species 
#
END SECTION EXTENSION SWITCHES 

###############################################################################
### BEGIN SECTION EXTENSION DATA
###############################################################################
#
END SECTION EXTENSION DATA
 
### END OF HEMCO INPUT FILE ###
