#------------------------------------------------------------------------------
#                  Harvard-NASA Emissions Component (HEMCO)                   !
#------------------------------------------------------------------------------
#BOP
#
# !MODULE: HEMCO_Config.rc
#
# !DESCRIPTION: Contains configuration information for HEMCO. Define the
#  emissions inventories and corresponding file paths here. Entire 
#  configuration files can be inserted into this configuration file with
#  an '>>>include' statement, e.g. '>>>include HEMCO\_Config\_test.rc' 
#  The settings of include-files will be ignored.
#\\
#\\
# !REMARKS:
#  The following tokens will be replaced:
#  (1) ROOT    : Filepath to HEMCO root directory
#  (2) CFDIR   : Filepath to directory of this configuration file. 
#  (3) MET     : Met field type (from G-C compilation command)
#  (4) GRID    : Horizontal grid type (from G-C compilation command)
#  (5) SIM     : Simulation type (from G-C compilation command)
#  (6) NEST    : Nested-grid type (CH, EU, NA, SE)
#  (7) LEVRED  : String w/ the # of levels in the reduced GEOS-Chem grid
#                as used in some filenames (e.g. "23L", "30L", "47L")
#  (8) LEVFULL : String w/ the # of levels in the full GEOS-Chem grid
#                as used in some filenames (e.g. "55L", "72L")
# 
# !REMARKS:
#  Customized for the Hg simulation simulation. 
#
# !REVISION HISTORY: 
#  26 Sep 2014 - C. Keller   - Initial version
#  07 Oct 2014 - R. Yantosca - Now use HEMCO tokens $ROOT, $MET, $RES
#  20 Oct 2014 - R. Yantosca - Now read GFED data from GFED3/v2014-10
#  16 Feb 2015 - C. Keller   - (a) Added data 'collections' (brackets).
#                              (b) Moved section extension switches at the
#                                  beginning.
#                              (c) Removed section extension data. These fields
#                                  are now listed in section base emissions.
#                              (d) Fields can now cover multiple categories.
#  11 Mar 2015 - C. Keller   - Added 'negative' bracket, e.g. data within a
#                              bracket leading by '--' is only considered if 
#                              this collection name is disabled.
#  13 Mar 2015 - C. Keller   - Added option to include other configuration 
#                              files by listing them as '>>>include CF_Name'.
#                              Added token '$CFDIR'. 
#  13 Mar 2015 - R. Yantosca - Add more netCDF files for Hg simulation
#  16 Mar 2015 - M. Sulprizio- Add GFED4 entries from Christoph Keller
#  27 Mar 2015 - C. Keller   - Warnings are now 0-3
#  21 Apr 2015 - R. Yantosca - Now can use extension names as switches
#  21 Apr 2015 - R. Yantosca - Now make section endings more visible
#  19 May 2015 - R. Yantosca - Now use tokens for VERBOSE, WARNINGS
#  05 Jun 2015 - R. Yantosca - Updated for the official GFED4 release data
#  10 Jun 2015 - R. Yantosca - Bug fix: add Streets HgP into HgP tracer
#  20 Aug 2015 - M. Sulprizio- Applied updates from Amanda Giang:
#                              (a) Now read MLD from MLD_DReqDT.geos.2x25
#                              (b) Introduced dMLD files for MLD tendency
#                              (c) Add AMAP/UNEP2010 emissions with adjustments
#                                  for in-plume reduction
#  26 Aug 2015 - E. Lundgren - Applied updates from Jenny Fisher to read 
#                              present-day and long-term TOMS O3 data sets
#EOP
#------------------------------------------------------------------------------
#BOC
###############################################################################
### BEGIN SECTION SETTINGS
###############################################################################

ROOT:                        {ROOT}
Logfile:                     HEMCO.log
DiagnPrefix:                 HEMCO_diagnostics
DiagnFreq:                   End
Wildcard:                    *
Separator:                   /
Unit tolerance:              1
Negative values:             0
Only unitless scale factors: false
Verbose:                     {VERBOSE}
Warnings:                    {WARNINGS}

### END SECTION SETTINGS ###

###############################################################################
### BEGIN SECTION EXTENSION SWITCHES
###############################################################################
###
### This section lists all emission extensions available to HEMCO and whether 
### they shall be used or not. Extension 'base' must have extension number 
### zero, all other extension numbers can be freely chosen. Data fields in 
### section 'base emissions' will only be read if the corresponding extension 
### (identified by ExtNr) is enabled. Similarly, fields grouped into data 
### collections ('(((CollectionName', ')))CollectionName') are only considered
### if the corresponding data collection is enabled in this section. Data
### listed within a disabled extension are always ignored, even if they are
### grouped in an enabled collection (e.g. GFED-4 data will never be considered
### if the GFED extension is disabled, even if the GFED4 option is set to true).
###
### It is possible to define collections that are only evaluated if a
### collection name is *not* enabled. This is achieved by leading the
### collection name with '.not.', e.g. '(((.not.FINN_daily' ...
### '))).not.FINN_daily' for FINN monthly data (only used if daily data is
### not being used). 
###
### The ExtNr provided in this section must match with the ExtNr assigned to
### the data listed in the base emissions sections. Otherwise, the listed files
### won't be read!
###############################################################################
# ExtNr ExtName           on/off  Species
0       Base              : on    *
    --> AMAP_COMB         :       true
    --> AMAP_INDS         :       true
    --> AMAP_INTW         :       true
    --> NEI2005           :       true
    --> ARTISANAL         :       true
    --> NATURAL           :       true
    --> SOILDIST          :       true
    --> BrOx_GC           :       true
    --> BrOx_GMI          :       true
    --> LRED_JNO2         :       true
    --> LRED_INPLUME      :       true
# ----------------------------------------------------------------------------
111     GFED              : on    Hg0
    --> GFED3             :       false
    --> GFED4             :       true
    --> GFED_daily        :       false
    --> GFED_3hourly      :       false
    --> CO scale factor   :       1.05
    --> POA scale factor  :       1.27
    --> NAP scale factor  :       2.75e-4
    --> hydrophilic BC    :       0.2
    --> hydrophilic OC    :       0.5

### END SECTION EXTENSION SWITCHES ###

###############################################################################
### BEGIN SECTION BASE EMISSIONS 
###############################################################################

# ExtNr	Name sourceFile	sourceVar sourceTime C/R/E SrcDim SrcUnit Species ScalIDs Cat Hier

#==============================================================================
# --- AMAP/UNEP emissions ---
#
# NOTE: HgP emissions are added to Hg2 emissions!
#==============================================================================
(((AMAP_COMB
0 AMAP_COMB_HG0 $ROOT/MERCURY/v2014-09/AMAP/AMAP_comb.0.5x0.5.2010.nc     Hg0 2010/1/1/0 C xy kg/m2/s Hg0 - 1 1
0 AMAP_COMB_HG2 $ROOT/MERCURY/v2014-09/AMAP/AMAP_comb.0.5x0.5.2010.nc     Hg2 2010/1/1/0 C xy kg/m2/s Hg2 - 1 1
0 AMAP_COMB_HGP $ROOT/MERCURY/v2014-09/AMAP/AMAP_comb.0.5x0.5.2010.nc     HgP 2010/1/1/0 C xy kg/m2/s HgP - 1 1
)))AMAP_COMB

(((AMAP_INDS
0 AMAP_INDS_HG0 $ROOT/MERCURY/v2014-09/AMAP/AMAP_inds.0.5x0.5.2010.nc Hg0 2010/1/1/0 C xy kg/m2/s Hg0 - 1 1
0 AMAP_INDS_HG2 $ROOT/MERCURY/v2014-09/AMAP/AMAP_inds.0.5x0.5.2010.nc Hg2 2010/1/1/0 C xy kg/m2/s Hg2 - 1 1
0 AMAP_INDS_HGP $ROOT/MERCURY/v2014-09/AMAP/AMAP_inds.0.5x0.5.2010.nc HgP 2010/1/1/0 C xy kg/m2/s HgP - 1 1
)))AMAP_INDS

(((AMAP_INTW
0 AMAP_INTW_HG0 $ROOT/MERCURY/v2014-09/AMAP/AMAP_intw.0.5x0.5.2010.nc Hg0 2010/1/1/0 C xy kg/m2/s Hg0 - 1 1
0 AMAP_INTW_HG2 $ROOT/MERCURY/v2014-09/AMAP/AMAP_intw.0.5x0.5.2010.nc Hg2 2010/1/1/0 C xy kg/m2/s Hg2 - 1 1
0 AMAP_INTW_HGP $ROOT/MERCURY/v2014-09/AMAP/AMAP_intw.0.5x0.5.2010.nc HgP 2010/1/1/0 C xy kg/m2/s HgP - 1 1
)))AMAP_INTW

#==============================================================================
# --- NEI 2005 anthropogenic emissions (NA only) ---
#
# NOTE: HgP emissions are added to Hg2 emissions!
#==============================================================================
(((NEI2005
0 NEI2005_HG0 $ROOT/MERCURY/v2014-09/NEI2005/NEI2005.geos5.4x5.nc Hg0 2005/1/1/0 C xy kg/m2/s Hg0 1004 1 2
0 NEI2005_HG2 $ROOT/MERCURY/v2014-09/NEI2005/NEI2005.geos5.4x5.nc Hg2 2005/1/1/0 C xy kg/m2/s Hg2 1004 1 2
0 NEI2005_HGP $ROOT/MERCURY/v2014-09/NEI2005/NEI2005.geos5.4x5.nc HgP 2005/1/1/0 C xy kg/m2/s HgP 1004 1 2
)))NEI2005

#==============================================================================
# --- Artisanal mining ---
#==============================================================================
(((ARTISANAL
0 ARTISANAL_HG0 $ROOT/MERCURY/v2014-09/ARTISANAL/artisanal.geos.4x5.nc Hg0 1985/1/1/0 C xy kg/m2/s Hg0 1 8 1
)))ARTISANAL

#==============================================================================
# --- Natural emissions ---
#==============================================================================
(((NATURAL
0 NATURAL_HG0 $ROOT/MERCURY/v2014-09/NATURAL/newnatural.geos.4x5.nc Hg0 1985/1/1/0 C xy kg/m2/s Hg0 2 3 1
)))NATURAL

#==============================================================================
# --- Soil distribution factor (pointer is imported in mercury_mod.F) ---
#==============================================================================
(((SOILDIST
0 HG0_SOILDIST $ROOT/MERCURY/v2014-09/SOIL/soilHg.merra.presentday.4x5.nc HG0_DIST 1985/1/1/0 C xy unitless * - 1 1
)))SOILDIST

###############################################################################
### EXTENSION DATA (subsection of BASE EMISSIONS SECTION)
###
### These fields are needed by the extensions listed above. The assigned ExtNr 
### must match the ExtNr entry in section 'Extension switches'. These fields 
### are only read if the extension is enabled.  The fields are imported by the
### extensions by field name.  The name given here must match the name used 
### in the extension's source code. 
###############################################################################

#==============================================================================
# --- GFED biomass burning emissions (Extension 111) 
# NOTE: These are the base emissions in kgDM/m2/s.
#==============================================================================
111 GFED_HUMTROP    $ROOT/GFED3/v2014-10/GFED3_humtropmap.nc              humtrop           2000/1/1/0             C xy 1         * - 1 1

(((GFED3   
111 GFED_WDL        $ROOT/GFED3/v2014-10/GFED3_gen.1x1.$YYYY.nc           GFED3_BB__WDL_DM  1997-2011/1-12/01/0    C xy kgDM/m2/s * - 1 1
111 GFED_AGW        $ROOT/GFED3/v2014-10/GFED3_gen.1x1.$YYYY.nc           GFED3_BB__AGW_DM  1997-2011/1-12/01/0    C xy kgDM/m2/s * - 1 1
111 GFED_DEF        $ROOT/GFED3/v2014-10/GFED3_gen.1x1.$YYYY.nc           GFED3_BB__DEF_DM  1997-2011/1-12/01/0    C xy kgDM/m2/s * - 1 1
111 GFED_FOR        $ROOT/GFED3/v2014-10/GFED3_gen.1x1.$YYYY.nc           GFED3_BB__FOR_DM  1997-2011/1-12/01/0    C xy kgDM/m2/s * - 1 1
111 GFED_PET        $ROOT/GFED3/v2014-10/GFED3_gen.1x1.$YYYY.nc           GFED3_BB__PET_DM  1997-2011/1-12/01/0    C xy kgDM/m2/s * - 1 1
111 GFED_SAV        $ROOT/GFED3/v2014-10/GFED3_gen.1x1.$YYYY.nc           GFED3_BB__SAV_DM  1997-2011/1-12/01/0    C xy kgDM/m2/s * - 1 1
)))GFED3  

(((GFED4
111 GFED_TEMP       $ROOT/GFED4/v2015-06/GFED4_gen.025x025.$YYYY.nc       DM_TEMP           1998-2014/1-12/01/0    C xy kgDM/m2/s * - 1 1
111 GFED_AGRI       $ROOT/GFED4/v2015-06/GFED4_gen.025x025.$YYYY.nc       DM_AGRI           1998-2014/1-12/01/0    C xy kgDM/m2/s * - 1 1
111 GFED_DEFO       $ROOT/GFED4/v2015-06/GFED4_gen.025x025.$YYYY.nc       DM_DEFO           1998-2014/1-12/01/0    C xy kgDM/m2/s * - 1 1
111 GFED_BORF       $ROOT/GFED4/v2015-06/GFED4_gen.025x025.$YYYY.nc       DM_BORF           1998-2014/1-12/01/0    C xy kgDM/m2/s * - 1 1
111 GFED_PEAT       $ROOT/GFED4/v2015-06/GFED4_gen.025x025.$YYYY.nc       DM_PEAT           1998-2014/1-12/01/0    C xy kgDM/m2/s * - 1 1
111 GFED_SAVA       $ROOT/GFED4/v2015-06/GFED4_gen.025x025.$YYYY.nc       DM_SAVA           1998-2014/1-12/01/0    C xy kgDM/m2/s * - 1 1
)))GFED4

(((GFED_daily
111 GFED_FRAC_DAY   $ROOT/GFED3/v2014-10/GFED3_dailyfrac_gen.1x1.$YYYY.nc GFED3_BB__DAYFRAC 2002-2011/1-12/1-31/0  C xy 1         * - 1 1
)))GFED_daily

(((GFED_3hourly
111 GFED_FRAC_3HOUR $ROOT/GFED3/v2014-10/GFED3_3hrfrac_gen.1x1.$YYYY.nc   GFED3_BB__HRFRAC  2002-2011/1-12/01/0-23 C xy 1         * - 1 1
)))GFED_3hourly

###############################################################################
### NON-EMISSIONS DATA (subsection of BASE EMISSIONS SECTION)
###
### Non-emissions data. The following fields are read through HEMCO but do 
### not contain emissions data. The extension number is set to wildcard 
### character denoting that these fields will not be considered for emission 
### calculation. A given entry is only read if the assigned species name is 
### an HEMCO species.
###############################################################################

#==============================================================================
# --- Time zones (offset to UTC) ---
#==============================================================================
* TIMEZONES $ROOT/TIMEZONES/v2015-02/timezones_1x1.nc UTC_OFFSET 2000/1/1/0 C xy count * - 1 1

#==============================================================================
# --- Oxidant fields (O3, OH) ---
#==============================================================================
* GLOBAL_O3  $ROOT/O3/v2014-09/MERGE.O3.geos5.72L.2x25.nc                 O3 1985/1-12/1/0 C xyz v/v   * - 1 1
* GLOBAL_OH  $ROOT/OH/v2014-09/v7-02-03.GMI/OH_3Dglobal.geos5.72L.2x25.nc OH 1985/1-12/1/0 C xyz kg/m3 * - 1 1

#==============================================================================
# --- BrOx fields --
#==============================================================================
(((BrOx_GC
* Br_GC      $ROOT/MERCURY/v2014-09/BrOx/BrOx.GC.geos5.2x25.nc  Br     2007/1-12/1/0 C xyz ppbv * - 1 1
* BrO_GC     -                                                  BrO    -             - -   ppbv * - 1 1
)))BrOx_GC

(((.not.BrOx_GC
* Br_TOMCAT  $ROOT/MERCURY/v2014-09/BrOx/BrOx.GMI.geos5.2x25.nc LBRO2N 1985/1-12/1/0 C xyz pptv * - 1 1
* BrO_TOMCAT -                                                  LBRO2H -             - -   pptv * - 1 1
))).not.BrOx_GC

(((BrOx_GMI
* Br_GMI     $ROOT/MERCURY/v2014-09/BrOx/BrOx.GMI.geos5.2x25.nc LBRO2N 1985/1-12/1/0 C xyz pptv * - 1 1
* BrO_GMI    -                                                  LBRO2H -             - -   pptv * - 1 1
)))BrOx_GMI

#==============================================================================
# --- J-value fields ---
#==============================================================================
* JBrO $ROOT/MERCURY/v2014-09/JVALUES/jBrO.daytime.geos5.2x25.nc JBrO 2002/1-12/1/0 C xyz s-1 * - 1 1
(((LRED_JNO2
* JNO2 $ROOT/MERCURY/v2014-09/JVALUES/jvalues.noon.geos5.2x25.nc JNO2 2005/1-12/1/0 C xyz s-1 * - 1 1
)))LRED_JNO2

#==============================================================================
# --- Aerosol data for Hg2 partitioning ---
#==============================================================================
* AERO_SO4  $ROOT/MERCURY/v2014-09/Hg2_PARTITION/aero.IJ_AVG.2007.geos5.2x25.nc SO4  2007/1/1/0 C xyz ppbv * - 1 1
* AERO_NH4  $ROOT/MERCURY/v2014-09/Hg2_PARTITION/aero.IJ_AVG.2007.geos5.2x25.nc NH4  2007/1/1/0 C xyz ppbv * - 1 1
* AERO_NIT  $ROOT/MERCURY/v2014-09/Hg2_PARTITION/aero.IJ_AVG.2007.geos5.2x25.nc NIT  2007/1/1/0 C xyz ppbv * - 1 1
* AERO_BCPI $ROOT/MERCURY/v2014-09/Hg2_PARTITION/aero.IJ_AVG.2007.geos5.2x25.nc BCPI 2007/1/1/0 C xyz ppbv * - 1 1
* AERO_BCPO $ROOT/MERCURY/v2014-09/Hg2_PARTITION/aero.IJ_AVG.2007.geos5.2x25.nc BCPO 2007/1/1/0 C xyz ppbv * - 1 1
* AERO_OCPI $ROOT/MERCURY/v2014-09/Hg2_PARTITION/aero.IJ_AVG.2007.geos5.2x25.nc OCPI 2007/1/1/0 C xyz ppbv * - 1 1
* AERO_OCPO $ROOT/MERCURY/v2014-09/Hg2_PARTITION/aero.IJ_AVG.2007.geos5.2x25.nc OCPO 2007/1/1/0 C xyz ppbv * - 1 1
* AERO_DST1 $ROOT/MERCURY/v2014-09/Hg2_PARTITION/aero.IJ_AVG.2007.geos5.2x25.nc DST1 2007/1/1/0 C xyz ppbv * - 1 1

#==============================================================================
# --- Data for the ocean mercury module --- 
#==============================================================================
(((+OCEAN_Hg+
* OCEAN_CHLA    $ROOT/CHLA/v2014-07/Chl_2003.geos.1x1.nc               CHLA    2003/1-12/1/0 C xy kg/m3 * - 1 1
* OCEAN_CHLA_A  $ROOT/MERCURY/v2014-09/OCEAN/CHL_ocn_2009.geos.2x25.nc CHLA_A  2009/1-12/1/0 C xy 1 * - 1 1
* OCEAN_EKMAN_V $ROOT/MERCURY/v2014-09/OCEAN/ekman_upvel.geos.2x25.nc  EKMAN_V 1985/1-12/1/0 C xy m/s   * - 1 1
* OCEAN_MLD     $ROOT/MERCURY/v2014-09/OCEAN/MLD_DReqDT.geos.2x25.nc   MLD     1985/1-12/1/0 C xy m     * - 1 1
* OCEAN_NPP     $ROOT/MERCURY/v2014-09/OCEAN/NPP_2003.geos.2x25.nc     NPP     2003/1-12/1/0 C xy kg/m2 * - 1 1
* OCEAN_NPP_A   $ROOT/MERCURY/v2014-09/OCEAN/NPP_ocn_2009.geos.2x25.nc NPP_A   2009/1-12/1/0 C xy 1 * - 1 1
* OCEAN_dMLD1   $ROOT/MERCURY/v2014-09/OCEAN/dMLD1_DreqDT.geos.2x25.nc dMLD1   1985/1-12/1/0 C xy cm/s  * - 1 1
* OCEAN_dMLD2   $ROOT/MERCURY/v2014-09/OCEAN/dMLD2_DreqDT.geos.2x25.nc dMLD2   1985/1-12/1/0 C xy cm/s  * - 1 1 
)))+OCEAN_Hg+

#==============================================================================
# --- TOMS/SBUV overhead ozone columns ---
#==============================================================================
(((+TOMS_SBUV_O3+
* TOMS_O3_COL $ROOT/TOMS_SBUV/v2015-03/TOMS_O3col_$YYYY.geos.1x1.nc       TOMS    1971-2010/1-12/1/0 C xy dobsons   * - 1 1
* TOMS_O3_PD  $ROOT/TOMS_SBUV/v2015-03/TOMS_O3col_presentday.geos.2x25.nc TOMS_PD  1085/1-12/1/0 C xy dobsons  * - 1 1
* TOMS_O3_LT  $ROOT/TOMS_SBUV/v2015-03/TOMS_O3col_longterm.geos.2x25.nc   TOMS_LT  1985/1-12/1/0 C xy dobsons  * - 1 1
)))+TOMS_SBUV_O3+

#==============================================================================
# --- Data for in plume reduction ---
#==============================================================================
(((LRED_INPLUME
* CFPP_NEI2005_Hg2 $ROOT/MERCURY/v2014-09/NEI2005/CFPP_NEI2005_NPRI2005_Hg2.geos5.2x25.2005.nc Hg2_an 2005/1/1/0 C xy kg/m2/s * - 1 1
)))LRED_INPLUME

### END SECTION BASE EMISSIONS ###

###############################################################################
### BEGIN SECTION SCALE FACTORS 
###############################################################################

# ScalID Name sourceFile sourceVar sourceTime C/R/E SrcDim SrcUnit Oper

# --- Scale factors for artisanal and soil emissions ---
1 ARTISANALSCALE 0.75 - - - xy 1 1
2 SOILSCALE      0.5  - - - xy 1 1

### END SECTION SCALE FACTORS ###

###############################################################################
### BEGIN SECTION MASKS 
###############################################################################

# ScalID Name sourceFile sourceVar sourceTime C/R/E SrcDim SrcUnit Oper Lon1/Lat1/Lon2/Lat2

1004 NA_MASK $ROOT/MASKS/v2014-07/NA_mask.geos.1x1.nc MASK 1985/1/1/0 C xy 1 1 -165/10/-40/90

### END SECTION MASKS ###
 
### END OF HEMCO INPUT FILE ###
#EOC
