#------------------------------------------------------------------------------
#                  Harvard-NASA Emissions Component (HEMCO)                   !
#------------------------------------------------------------------------------
#BOP
#
# !MODULE: HEMCO_Config.rc
#
# !DESCRIPTION: Contains configuration information for HEMCO. Define the
#  emissions inventories and corresponding file paths here. Entire 
#  configuration files can be inserted into this configuration file with
#  an '>>>include' statement, e.g. '>>>include HEMCO\_Config\_test.rc' 
#  The settings of include-files will be ignored.
#\\
#\\
# !REMARKS:
#  Customized for the offline aerosol simulation. 
#
#  The following tokens will be replaced:
#  (1) ROOT    : Filepath to HEMCO root directory
#  (2) CFDIR   : Filepath to directory of this configuration file. 
#  (3) MET     : Met field type (from G-C compilation command)
#  (4) GRID    : Horizontal grid type (from G-C compilation command)
#  (5) SIM     : Simulation type (from G-C compilation command)
#  (6) NEST    : Nested-grid type (CH, EU, NA, SE)
#  (7) LEVRED  : String w/ the # of levels in the reduced GEOS-Chem grid
#                as used in some filenames (e.g. "23L", "30L", "47L")
#  (8) LEVFULL : String w/ the # of levels in the full GEOS-Chem grid
#                as used in some filenames (e.g. "55L", "72L")
#
# !REVISION HISTORY: 
#  Navigate to your unit tester directory and type 'gitk' at the prompt
#  to browse the revision history.
#EOP
#------------------------------------------------------------------------------
#BOC
###############################################################################
### BEGIN SECTION SETTINGS
###############################################################################

ROOT:                        {ROOT}
Logfile:                     HEMCO.log
DiagnPrefix:                 HEMCO_diagnostics
DiagnFreq:                   End
Wildcard:                    *
Separator:                   /
Unit tolerance:              1
Negative values:             0
Only unitless scale factors: false
Verbose:                     {VERBOSE}
Warnings:                    {WARNINGS}

### END SECTION SETTINGS ###

###############################################################################
### BEGIN SECTION EXTENSION SWITCHES
###############################################################################
###
### This section lists all emission extensions available to HEMCO and whether 
### they shall be used or not. Extension 'base' must have extension number 
### zero, all other extension numbers can be freely chosen. Data fields in 
### section 'base emissions' will only be read if the corresponding extension 
### (identified by ExtNr) is enabled. Similarly, fields grouped into data 
### collections ('(((CollectionName', ')))CollectionName') are only considered
### if the corresponding data collection is enabled in this section. Data
### listed within a disabled extension are always ignored, even if they are
### grouped in an enabled collection (e.g. GFED-4 data will never be considered
### if the GFED extension is disabled, even if the GFED4 option is set to true).
###
### It is possible to define collections that are only evaluated if a
### collection name is *not* enabled. This is achieved by leading the
### collection name with '.not.', e.g. '(((.not.FINN_daily' ...
### '))).not.FINN_daily' for FINN monthly data (only used if daily data is
### not being used). 
###
### The ExtNr provided in this section must match with the ExtNr assigned to
### the data listed in the base emissions sections. Otherwise, the listed 
### files won't be read!
###
### NOTES:
### --> You can only select one biomass burning option (GFED, QFED, FINN).
###
### --> BOND_BIOMASS must be set to false if GFED, QFED, or FINN is enabled.
###
### --> The biomass burning POA scale factor is the same as for the biofuel 
###     and anthro sources. 
###
### --> The NAP scale factor is determined as in the original simulation:
###     Obtain NAP emissions using scale factor from Hays 2002 ES&T 
###     (0.0253 g NAP/kg DM) and Andreae and Merlet 2001 GBC (92 g CO/kg DM)
###############################################################################
# ExtNr ExtName           on/off  Species
0       Base              : on    *
    --> AEIC              :       true
    --> BIOFUEL           :       true
    --> BOND              :       true
    --> BRAVO             :       true
    --> CAC               :       true
    --> C2H6              :       true
    --> EDGAR             :       true
    --> HTAP              :       false
    --> EMEP              :       true
    --> GEIA              :       true
    --> NEI2005           :       true
    --> NEI2011           :       false
    --> SHIP              :       true
    --> NEI2011_SHIP      :       false
    --> MIX               :       true
    --> STREETS           :       false
    --> VOLCANO           :       true
    --> RCP_3PD           :       false 
    --> RCP_45            :       false
    --> RCP_60            :       false
    --> RCP_85            :       false
    --> QFED2             :       false
# -----------------------------------------------------------------------------
100     Custom            : off   - 
101     SeaFlux           : on    DMS
105     DustDead          : on    DST1/DST2/DST3/DST4 
    --> Mass tuning factor:       7.0e-4
106     DustGinoux        : off   DST1/DST2/DST3/DST4
115     DustAlk           : off   DSTAL1/DSTAL2/DSTAL3/DSTAL4
107     SeaSalt           : on    SALA/SALC/Br2
    --> SALA lower radius :       0.01 
    --> SALA upper radius :       0.5
    --> SALC lower radius :       0.5
    --> SALC upper radius :       8.0
    --> Emit Br2          :       false  
    --> Br2 scaling       :       1.0 
116     MarinePOA         : off   MOPO/MOPI 
108     MEGAN             : on    ISOP/ACET/PRPE/C2H4/ALD2
    --> Isoprene scaling  :       1.0 
    --> CO2 inhibition    :       true
    --> CO2 conc (ppmv)   :       390.0
109     MEGAN_Mono        : on    CO/OCPI/MONX
110     MEGAN_SOA         : off   MTPA/MTPO/LIMO/SESQ
111     GFED              : on    NO/CO/ALK4/ACET/MEK/ALD2/PRPE/C3H8/CH2O/C2H6/SO2/NH3/BCPO/BCPI/OCPO/OCPI/POA1/NAP
    --> GFED3             :       false 
    --> GFED4             :       true
    --> GFED_daily        :       false
    --> GFED_3hourly      :       false
    --> Scaling_CO        :       1.05
    --> Scaling_POA       :       1.27
    --> Scaling_NAP       :       2.75e-4
    --> hydrophilic BC    :       0.2
    --> hydrophilic OC    :       0.5
114     FINN              : off   NO/CO/ALK4/ACET/MEK/ALD2/PRPE/C3H8/CH2O/C2H6/SO2/NH3/BCPI/BCPO/OCPI/OCPO/GLYC/HAC
    --> FINN_daily        :       false
    --> Scaling_CO        :       1.0
    --> hydrophilic BC    :       0.2
    --> hydrophilic OC    :       0.5

### END SECTION EXTENSION SWITCHES ###

###############################################################################
### BEGIN SECTION BASE EMISSIONS 
###############################################################################

# ExtNr	Name sourceFile	sourceVar sourceTime C/R/E SrcDim SrcUnit Species ScalIDs Cat Hier

#==============================================================================
# --- MACCity ---
#==============================================================================
#0 MACCITY_NO $ROOT/MACCITY/v2014-07/MACCity_anthro_NOx_2000-2010_16080.nc MACCity 2000/1/1/0 C xy kg/m2/s NO - 1 2
#0 MACCITY_CO $ROOT/MACCITY/v2014-07/MACCity_anthro_CO_2000-2010_16080.nc  MACCity 2000/1/1/0 C xy kg/m2/s CO - 1 2 

#==============================================================================
# --- GEIA ---
#
# NOTE: These emissions are old and are slated to be replaced soon.
#==============================================================================
(((GEIA
# GEIA NH3 emissions: anthropogenic, biofuel and natural sources
0 GEIA_NH3_ANTH $ROOT/NH3/v2014-07/NH3_geos.4x5.nc         NH3_ANTH    1990/1-12/1/0 C xy  kg/m2/s NH3 - 1 1 

(((BIOFUEL
0 GEIA_NH3_BIOF $ROOT/NH3/v2014-07/NH3_biofuel.geos.4x5.nc NH3_BIOFUEL 1998/1-12/1/0 C xy  kg/m2/s NH3 - 2 1
)))BIOFUEL

0 GEIA_NH3_NATU $ROOT/NH3/v2014-07/NH3_geos.4x5.nc         NH3_NATU    1990/1-12/1/0 C xy  kg/m2/s NH3 - 3 1
)))GEIA

#==============================================================================
# --- EDGAR v4.2 ---
#
# %%% NOTE: Use EDGAR for the global base emissions instead of GEIA %%%
#
# Do not include the following sources (meng,3/6/2014)
#  - Non-road transportation emissions (1A3a_c_d_e). Instead, use
#    ICOADS/ARCTAS for ship emissions and AEIC for aircraft emisisons.
#  - Soil emissions of NOx (4C_4D). These emissions are calculated via the 
#    SoilNOx extension.
#  - Open biomass burning (4F, 5A_C_D_F_4E). These emissions are obtained from
#    GFED3 or FINN.
#==============================================================================
(((EDGAR
0 EDGAR_SO2_1A1a_6C        $ROOT/EDGARv42/v2015-02/SO2/EDGAR_v42_SO2_IPCC_1A1a_6C.generic.01x01.nc        emi_so2 1970-2008/1/1/0 C xy kg/m2/s SO2 11/42/31    1 2
0 EDGAR_SO4_1A1a_6C        -                                                                              -       -               - -  -       SO4 11/42/31/63 1 2 
0 EDGAR_SO2_1A2            $ROOT/EDGARv42/v2015-02/SO2/EDGAR_v42_SO2_IPCC_1A2.generic.01x01.nc            emi_so2 1970-2008/1/1/0 C xy kg/m2/s SO2 11/42/31    1 2
0 EDGAR_SO4_1A2            -                                                                              -       -               - -  -       SO4 11/42/31/63 1 2 
#0 EDGAR_SO2_1A3a_c_d_e    $ROOT/EDGARv42/v2015-02/SO2/EDGAR_v42_SO2_IPCC_1A3a_c_d_e.generic.01x01.nc     emi_so2 1970-2008/1/1/0 C xy kg/m2/s SO2 11/42/31    1 2
#0 EDGAR_SO4_1A3a_c_d_e    -                                                                              -       -               - -  -       SO4 11/42/31/63 1 2 
0 EDGAR_SO2_1A3b           $ROOT/EDGARv42/v2015-02/SO2/EDGAR_v42_SO2_IPCC_1A3b.generic.01x01.nc           emi_so2 1970-2008/1/1/0 C xy kg/m2/s SO2 11/42/31    1 2
0 EDGAR_SO4_1A3b           -                                                                              -       -               - -  -       SO4 11/42/31/63 1 2 
0 EDGAR_SO2_1A4            $ROOT/EDGARv42/v2015-02/SO2/EDGAR_v42_SO2_IPCC_1A4.generic.01x01.nc            emi_so2 1970-2008/1/1/0 C xy kg/m2/s SO2 11/42/31    1 2
0 EDGAR_SO4_1A4            -                                                                              -       -               - -  -       SO4 11/42/31/63 1 2 
0 EDGAR_SO2_1B1_1B2_1A1b_c $ROOT/EDGARv42/v2015-02/SO2/EDGAR_v42_SO2_IPCC_1B1_1B2_1A1b_c.generic.01x01.nc emi_so2 1970-2008/1/1/0 C xy kg/m2/s SO2 11/42/31    1 2
0 EDGAR_SO4_1B1_1B2_1A1b_c -                                                                              -       -               - -  -       SO4 11/42/31/63 1 2 
0 EDGAR_SO2_2B_2D          $ROOT/EDGARv42/v2015-02/SO2/EDGAR_v42_SO2_IPCC_2B_2D.generic.01x01.nc          emi_so2 1970-2008/1/1/0 C xy kg/m2/s SO2 11/42/31    1 2
0 EDGAR_SO4_2B_2D          -                                                                              -       -               - -  -       SO4 11/42/31/63 1 2 
0 EDGAR_SO2_2C             $ROOT/EDGARv42/v2015-02/SO2/EDGAR_v42_SO2_IPCC_2C.generic.01x01.nc             emi_so2 1970-2008/1/1/0 C xy kg/m2/s SO2 11/42/31    1 2
0 EDGAR_SO4_2C             -                                                                              -       -               - -  -       SO4 11/42/31/63 1 2 
#0 EDGAR_SO2_4F            $ROOT/EDGARv42/v2015-02/SO2/EDGAR_v42_SO2_IPCC_4F.generic.01x01.nc             emi_so2 1970-2008/1/1/0 C xy kg/m2/s SO2 11/42/31    1 2
#0 EDGAR_SO4_4F            -                                                                              -       -               - -  -       SO4 11/42/31/63 1 2 
#0 EDGAR_SO2_5A_C_D_F_4E   $ROOT/EDGARv42/v2015-02/SO2/EDGAR_v42_SO2_IPCC_5A_C_D_F_4E.generic.01x01.nc    emi_so2 1970-2008/1/1/0 C xy kg/m2/s SO2 11/42/31    1 2
#0 EDGAR_SO4_5A_C_D_F_4E   -                                                                              -       -               - -  -       SO4 11/42/31/63 1 2 
0 EDGAR_SO2_7A             $ROOT/EDGARv42/v2015-02/SO2/EDGAR_v42_SO2_IPCC_7A.generic.01x01.nc             emi_so2 1970-2008/1/1/0 C xy kg/m2/s SO2 11/42/31    1 2
0 EDGAR_SO4_7A             -                                                                              -       -               - -  -       SO4 11/42/31/63 1 2 
0 EDGAR_NH3_1A1a_6         $ROOT/EDGARv42/v2015-02/NH3/EDGAR_v42_NH3_IPCC_1A1a_6.generic.01x01.nc         emi_nh3 1970-2008/1/1/0 C xy kg/m2/s NH3 38          1 2
0 EDGAR_NH3_1A1b_c         $ROOT/EDGARv42/v2015-02/NH3/EDGAR_v42_NH3_IPCC_1A1b_c.generic.01x01.nc         emi_nh3 1970-2008/1/1/0 C xy kg/m2/s NH3 38          1 2
0 EDGAR_NH3_1A2            $ROOT/EDGARv42/v2015-02/NH3/EDGAR_v42_NH3_IPCC_1A2.generic.01x01.nc            emi_nh3 1970-2008/1/1/0 C xy kg/m2/s NH3 38          1 2
0 EDGAR_NH3_1A3            $ROOT/EDGARv42/v2015-02/NH3/EDGAR_v42_NH3_IPCC_1A3.generic.01x01.nc            emi_nh3 1970-2008/1/1/0 C xy kg/m2/s NH3 38          1 2
0 EDGAR_NH3_1A4            $ROOT/EDGARv42/v2015-02/NH3/EDGAR_v42_NH3_IPCC_1A4.generic.01x01.nc            emi_nh3 1970-2008/1/1/0 C xy kg/m2/s NH3 38          1 2
0 EDGAR_NH3_2A             $ROOT/EDGARv42/v2015-02/NH3/EDGAR_v42_NH3_IPCC_2A.generic.01x01.nc             emi_nh3 1970-2008/1/1/0 C xy kg/m2/s NH3 38          1 2
0 EDGAR_NH3_2B             $ROOT/EDGARv42/v2015-02/NH3/EDGAR_v42_NH3_IPCC_2B.generic.01x01.nc             emi_nh3 1970-2008/1/1/0 C xy kg/m2/s NH3 38          1 2
0 EDGAR_NH3_4B             $ROOT/EDGARv42/v2015-02/NH3/EDGAR_v42_NH3_IPCC_4B.generic.01x01.nc             emi_nh3 1970-2008/1/1/0 C xy kg/m2/s NH3 38          1 2
0 EDGAR_NH3_4C_4D          $ROOT/EDGARv42/v2015-02/NH3/EDGAR_v42_NH3_IPCC_4C_4D.generic.01x01.nc          emi_nh3 1970-2008/1/1/0 C xy kg/m2/s NH3 38          1 2
#0 EDGAR_NH3_4F            $ROOT/EDGARv42/v2015-02/NH3/EDGAR_v42_NH3_IPCC_4F.generic.01x01.nc             emi_nh3 1970-2008/1/1/0 C xy kg/m2/s NH3 38          1 2
#0 EDGAR_NH3_5A_C_D_F_4E   $ROOT/EDGARv42/v2015-02/NH3/EDGAR_v42_NH3_IPCC_5A_C_D_F_4E.generic.01x01.nc    emi_nh3 1970-2008/1/1/0 C xy kg/m2/s NH3 38          1 2
)))EDGAR

#==============================================================================
# --- HTAP v2 ---
#
# %%% NOTE: This is an optional inventory. You may select either EDGAR or HTAP
# for the global base emissions %%%
#
# ==> HTAP ship emissions are listed in the ship emissions section below
# ==> Disable aircraft emissions and get them from AEIC instead.
#==============================================================================
(((HTAP
0 HTAP_SO2_IND   $ROOT/HTAP/v2015-03/SO2/EDGAR_HTAP_SO2_INDUSTRY.generic.01x01.nc    emi_so2 2008-2010/1-12/1/0 C xy kg/m2/s SO2 11/29    1/2 4
0 HTAP_SO4_IND   -                                                                   -       -                  - -  -       SO4 11/29/63 1/2 4
0 HTAP_SO2_POW   $ROOT/HTAP/v2015-03/SO2/EDGAR_HTAP_SO2_ENERGY.generic.01x01.nc      emi_so2 2008-2010/1-12/1/0 C xy kg/m2/s SO2 11/29    1/2 4
0 HTAP_SO4_POW   -                                                                   -       -                  - -  -       SO4 11/29/63 1/2 4
0 HTAP_SO2_RES   $ROOT/HTAP/v2015-03/SO2/EDGAR_HTAP_SO2_RESIDENTIAL.generic.01x01.nc emi_so2 2008-2010/1-12/1/0 C xy kg/m2/s SO2 11/29    1/2 4
0 HTAP_SO4_RES   -                                                                   -       -                  - -  -       SO4 11/29/63 1/2 4
0 HTAP_SO2_TRA   $ROOT/HTAP/v2015-03/SO2/EDGAR_HTAP_SO2_TRANSPORT.generic.01x01.nc   emi_so2 2008-2010/1-12/1/0 C xy kg/m2/s SO2 11/29    1/2 4
0 HTAP_SO4_TRA   -                                                                   -       -                  - -  -       SO4 11/29/63 1/2 4
#0 HTAP_SO2_AIR1 $ROOT/HTAP/v2015-03/SO2/EDGAR_HTAP_SO2_AIR_LTO.generic.01x01.nc     emi_so2 2008-2010/1/1/0    C xy kg/m2/s SO2 11/29    1/2 4
#0 HTAP_SO4_AIR1 -                                                                   -       -                  - -  -       SO4 11/29/63 1/2 4
#0 HTAP_SO2_AIR2 $ROOT/HTAP/v2015-03/SO2/EDGAR_HTAP_SO2_AIR_CDS.generic.01x01.nc     emi_so2 2008-2010/1/1/0    C xy kg/m2/s SO2 11/29    1/2 4
#0 HTAP_SO4_AIR2 -                                                                   -       -                  - -  -       SO4 11/29/63 1/2 4
#0 HTAP_SO2_AIR3 $ROOT/HTAP/v2015-03/SO2/EDGAR_HTAP_SO2_AIR_CRS.generic.01x01.nc     emi_so2 2008-2010/1/1/0    C xy kg/m2/s SO2 11/29    1/2 4
#0 HTAP_SO4_AIR3 -                                                                   -       -                  - -  -       SO4 11/29/63 1/2 4
0 HTAP_NH3_IND   $ROOT/HTAP/v2015-03/NH3/EDGAR_HTAP_NH3_INDUSTRY.generic.01x01.nc    emi_nh3 2008-2010/1-12/1/0 C xy kg/m2/s NH3 -        1/2 4
0 HTAP_NH3_POW   $ROOT/HTAP/v2015-03/NH3/EDGAR_HTAP_NH3_ENERGY.generic.01x01.nc      emi_nh3 2008-2010/1-12/1/0 C xy kg/m2/s NH3 -        1/2 4
0 HTAP_NH3_RES   $ROOT/HTAP/v2015-03/NH3/EDGAR_HTAP_NH3_RESIDENTIAL.generic.01x01.nc emi_nh3 2008-2010/1-12/1/0 C xy kg/m2/s NH3 -        1/2 4
0 HTAP_NH3_TRA   $ROOT/HTAP/v2015-03/NH3/EDGAR_HTAP_NH3_TRANSPORT.generic.01x01.nc   emi_nh3 2008-2010/1-12/1/0 C xy kg/m2/s NH3 -        1/2 4
0 HTAP_NH3_AGR   $ROOT/HTAP/v2015-03/NH3/EDGAR_HTAP_NH3_AGRICULTURE.generic.01x01.nc emi_nh3 2008-2010/1-12/1/0 C xy kg/m2/s NH3 -        1/2 4
)))HTAP

#==============================================================================
# --- BIOFUEL EMISSIONS (Yevich and Logan, 2003) ---
#
# ==> Note that this inventory does not contain emissions over the US!!
#     Add to EDGAR emissions, i.e assign same category and hierarchy as EDGAR!
#     Don't read VOCs that are included in RETRO!!
#
# ==> It turns out that biofuel SO2 emissions in some regions are very 
#     different (up to a factor of 2 for some grid boxes) when using the 
#     high-resolution biofuel field compared to the 4x5 degrees input file. 
#     For backwards consistency, I'd recommend using the 4x5 biofuel file 
#     instead of the 1x1 file.
#        -- Christoph Keller (03 Nov 2014)
#==============================================================================
(((BIOFUEL
0 BIOFUEL_CO   $ROOT/BIOFUEL/v2014-07/biofuel.geos.4x5.nc BIOFUEL_CO   1985/1/1/0 C xy kg/m2/s CO   53 2 1
0 BIOFUEL_SO2  -                                          -            -          - -  -       SO2  91 2 1
)))BIOFUEL

#==============================================================================
# --- EMEP (Europe) ---
#==============================================================================
(((EMEP
0 EMEP_SO2  $ROOT/EMEP/v2015-03/EMEP.generic.1x1.nc SO2  1990-2012/1/1/0 C xy kg/m2/s SO2  61/35/1000    1/2 10
0 EMEP_SO4  -                                       -    -               - -  -       SO4  64/35/1000    1/2 10
0 EMEP_NH3  $ROOT/EMEP/v2015-03/EMEP.generic.1x1.nc NH3  1990-2012/1/1/0 C xy kg/m2/s NH3  34/1000       1/2 10
)))EMEP

#==============================================================================
# --- BRAVO (Mexico) ---
#==============================================================================
(((BRAVO
0 BRAVO_SO2 $ROOT/BRAVO/v2014-07/BRAVO.generic.1x1.nc SO2 1999/1/1/0 C xy kg/m2/s SO2 11/13/1001     1/2 20
0 BRAVO_SO4 -                                         -   -          - -  -       SO4 11/13/65/1001  1/2 20
)))BRAVO

#==============================================================================
# --- CAC (Canada) ---
#==============================================================================
(((CAC
0 CAC_SO2 $ROOT/CAC/v2014-07/CAC.geos.1x1.nc     SOx 2002-2008/1/1/0 C xy kg/m2/s SO2 11/19/60/1002   1/2 30
0 CAC_SO4 -                                      -   -               - -  -       SO4 60/65/1002      1/2 30
0 CAC_NH3 $ROOT/CAC/v2014-07/CAC_NH3.geos.1x1.nc NH3 2008/1-12/1/0   C xy kg/m2/s NH3 1002            1/2 30
)))CAC

#==============================================================================
# --- NEI 2005 (USA) ---
#
# NOTE: Need to apply the GEIA_TOD_FOSSIL scale factor (#26)! 
# done for CO, need to check others
#==============================================================================
(((NEI2005
0 NEI2005_SO2  $ROOT/NEI2005/v2014-09/NEI2005.geos.1x1.1L.nc    SO2  2005/1/1/0 C xy kg/m2/s SO2  11/18/218/237/1005    1 35
0 NEI2005_SO4  $ROOT/NEI2005/v2014-09/NEI2005.geos.1x1.1L.nc    SO4  2005/1/1/0 C xy kg/m2/s SO4  11/18/219/238/1005    1 35
0 NEI2005_NH3  $ROOT/NEI2005/v2014-09/NEI2005.geos.1x1.1L.nc    NH3  2005/1/1/0 C xy kg/m2/s NH3  242/1005              1 35
#0 NEI2005_OC  $ROOT/NEI2005/v2014-09/NEI2005.geos.1x1.1L.nc    OCPI 2005/1/1/0 C xy kg/m2/s OCPI 222/241/1005          1 35
#0 NEI2005_BC  $ROOT/NEI2005/v2014-09/NEI2005.geos.1x1.1L.nc    BCPI 2005/1/1/0 C xy kg/m2/s BCPI 221/240/1005          1 35
)))NEI2005

#==============================================================================
# --- NEI 2011 (USA) ---
#==============================================================================
(((NEI2011
# SURFACE INVENTORY
0 NEI11_SURFACE_NH3    $ROOT/NEI2011/v2015-03/$MM/NEI11_0.1x0.1_2011$MM$DD.nc          NH3      2006-2013/1-12/1-31/* R xy  kg/m2/s  NH3  253/1007     1/2 50
0 NEI11_SURFACE_SO2    $ROOT/NEI2011/v2015-03/$MM/NEI11_0.1x0.1_2011$MM$DD.nc          SO2      2006-2013/1-12/1-31/* R xy  kg/m2/s  SO2  255/1007     1/2 50
0 NEI11_SURFACE_SULF   $ROOT/NEI2011/v2015-03/$MM/NEI11_0.1x0.1_2011$MM$DD.nc          SULF     2006-2013/1-12/1-31/* R xy  kg/m2/s  SO2  255/1007     1/2 50
0 NEI11_SURFACE_SO4    $ROOT/NEI2011/v2015-03/$MM/NEI11_0.1x0.1_2011$MM$DD.nc          PSO4     2006-2013/1-12/1-31/* R xy  kg/m2/s  SO4  255/1007     1/2 50
0 NEI11_SURFACE_BCPI   $ROOT/NEI2011/v2015-03/$MM/NEI11_0.1x0.1_2011$MM$DD.nc          PEC      2006-2013/1-12/1-31/* R xy  kg/m2/s  BCPI 256/1007/265 1/2 50
0 NEI11_SURFACE_BCPO   -                                                               -        -                     - -   -        BCPO 256/1007/266 1/2 50
0 NEI11_SURFACE_OCPI   $ROOT/NEI2011/v2015-03/$MM/NEI11_0.1x0.1_2011$MM$DD.nc          POC      2006-2013/1-12/1-31/* R xy  kg/m2/s  OCPI 257/1007/267 1/2 50
0 NEI11_SURFACE_OCPO   -                                                               -        -                     - -   -        OCPO 257/1007/268 1/2 50

# ELECTRIC GENERATING UNITS (EGUs)
#0 NEI11_EGU_NH3       $ROOT/NEI2011/v2015-03/$MM/NEI11_0.1x0.1_2011$MM$DD_egu.nc      NH3      2006-2013/1-12/1-31/* R xyz kg/m2/s  NH3  253/1007     1   50
0 NEI11_EGU_SO2        $ROOT/NEI2011/v2015-03/$MM/NEI11_0.1x0.1_2011$MM$DD_egu.nc      SO2      2006-2013/1-12/1-31/* R xyz kg/m2/s  SO2  255/1007     1   50
0 NEI11_EGU_SULF       $ROOT/NEI2011/v2015-03/$MM/NEI11_0.1x0.1_2011$MM$DD_egu.nc      SULF     2006-2013/1-12/1-31/* R xyz kg/m2/s  SO2  255/1007     1   50
0 NEI11_EGU_SO4        $ROOT/NEI2011/v2015-03/$MM/NEI11_0.1x0.1_2011$MM$DD_egu.nc      PSO4     2006-2013/1-12/1-31/* R xyz kg/m2/s  SO4  255/1007     1   50
0 NEI11_EGU_BCPI       $ROOT/NEI2011/v2015-03/$MM/NEI11_0.1x0.1_2011$MM$DD_egu.nc      PEC      2006-2013/1-12/1-31/* R xyz kg/m2/s  BCPI 256/1007/265 1   50
0 NEI11_EGU_BCPO       -                                                               -        -                     - -   -        BCPO 256/1007/266 1   50
0 NEI11_EGU_OCPI       $ROOT/NEI2011/v2015-03/$MM/NEI11_0.1x0.1_2011$MM$DD_egu.nc      POC      2006-2013/1-12/1-31/* R xyz kg/m2/s  OCPI 257/1007/267 1   50
0 NEI11_EGU_OCPO       -                                                               -        -                     - -   -        OCPO 257/1007/268 1   50

# PEAKING ELECTRIC GENERATING UNITS
#0 NEI11_EGUPK_NH3     $ROOT/NEI2011/v2015-03/$MM/NEI11_0.1x0.1_2011$MM$DD_egupk.nc    NH3      2006-2013/1-12/1-31/* R xyz kg/m2/s  NH3  253/1007     1   50
0 NEI11_EGUPK_SO2      $ROOT/NEI2011/v2015-03/$MM/NEI11_0.1x0.1_2011$MM$DD_egupk.nc    SO2      2006-2013/1-12/1-31/* R xyz kg/m2/s  SO2  255/1007     1   50
0 NEI11_EGUPK_SULF     $ROOT/NEI2011/v2015-03/$MM/NEI11_0.1x0.1_2011$MM$DD_egupk.nc    SULF     2006-2013/1-12/1-31/* R xyz kg/m2/s  SO2  255/1007     1   50
0 NEI11_EGUPK_BCPI     $ROOT/NEI2011/v2015-03/$MM/NEI11_0.1x0.1_2011$MM$DD_egupk.nc    PEC      2006-2013/1-12/1-31/* R xyz kg/m2/s  BCPI 256/1007/265 1   50
0 NEI11_EGUPK_BCPO     -                                                               -        -                     - -   -        BCPO 256/1007/266 1   50
0 NEI11_EGUPK_OCPI     $ROOT/NEI2011/v2015-03/$MM/NEI11_0.1x0.1_2011$MM$DD_egupk.nc    POC      2006-2013/1-12/1-31/* R xyz kg/m2/s  OCPI 257/1007/267 1   50
0 NEI11_EGUPK_OCPO     -                                                               -        -                     - -   -        OCPO 257/1007/268 1   50

# OIL & GAS
0 NEI11_OILGAS_NH3     $ROOT/NEI2011/v2015-03/$MM/NEI11_0.1x0.1_2011$MM$DD_oilgas.nc   NH3      2006-2013/1-12/1-31/* R xyz kg/m2/s  NH3  253/1007     1   50
0 NEI11_OILGAS_SO2     $ROOT/NEI2011/v2015-03/$MM/NEI11_0.1x0.1_2011$MM$DD_oilgas.nc   SO2      2006-2013/1-12/1-31/* R xyz kg/m2/s  SO2  255/1007     1   50
0 NEI11_OILGAS_SULF    $ROOT/NEI2011/v2015-03/$MM/NEI11_0.1x0.1_2011$MM$DD_oilgas.nc   SULF     2006-2013/1-12/1-31/* R xyz kg/m2/s  SO2  255/1007     1   50
0 NEI11_OILGAS_SO4     $ROOT/NEI2011/v2015-03/$MM/NEI11_0.1x0.1_2011$MM$DD_oilgas.nc   PSO4     2006-2013/1-12/1-31/* R xyz kg/m2/s  SO4  255/1007     1   50
0 NEI11_OILGAS_BCPI    $ROOT/NEI2011/v2015-03/$MM/NEI11_0.1x0.1_2011$MM$DD_oilgas.nc   PEC      2006-2013/1-12/1-31/* R xyz kg/m2/s  BCPI 256/1007/265 1   50
0 NEI11_OILGAS_BCPO    -                                                               -        -                     - -   -        BCPO 256/1007/266 1   50
0 NEI11_OILGAS_OCPI    $ROOT/NEI2011/v2015-03/$MM/NEI11_0.1x0.1_2011$MM$DD_oilgas.nc   POC      2006-2013/1-12/1-31/* R xyz kg/m2/s  OCPI 257/1007/267 1   50
0 NEI11_OILGAS_OCPO    -                                                               -        -                     - -   -        OCPO 257/1007/268 1   50

# OTHER POINT SOURCES
0 NEI11_OTHPT_NH3      $ROOT/NEI2011/v2015-03/$MM/NEI11_0.1x0.1_2011$MM$DD_othpt.nc    NH3      2006-2013/1-12/1-31/* R xyz kg/m2/s  NH3  253/1007     1   50
0 NEI11_OTHPT_SO2      $ROOT/NEI2011/v2015-03/$MM/NEI11_0.1x0.1_2011$MM$DD_othpt.nc    SO2      2006-2013/1-12/1-31/* R xyz kg/m2/s  SO2  255/1007     1   50
0 NEI11_OTHPT_SULF     $ROOT/NEI2011/v2015-03/$MM/NEI11_0.1x0.1_2011$MM$DD_othpt.nc    SULF     2006-2013/1-12/1-31/* R xyz kg/m2/s  SO2  255/1007     1   50
0 NEI11_OTHPT_SO4      $ROOT/NEI2011/v2015-03/$MM/NEI11_0.1x0.1_2011$MM$DD_othpt.nc    PSO4     2006-2013/1-12/1-31/* R xyz kg/m2/s  SO4  255/1007     1   50
0 NEI11_OTHPT_BCPI     $ROOT/NEI2011/v2015-03/$MM/NEI11_0.1x0.1_2011$MM$DD_othpt.nc    PEC      2006-2013/1-12/1-31/* R xyz kg/m2/s  BCPI 256/1007/265 1   50
0 NEI11_OTHPT_BCPO     -                                                               -        -                     - -   -        BCPO 256/1007/266 1   50
0 NEI11_OTHPT_OCPI     $ROOT/NEI2011/v2015-03/$MM/NEI11_0.1x0.1_2011$MM$DD_othpt.nc    POC      2006-2013/1-12/1-31/* R xyz kg/m2/s  OCPI 257/1007/267 1   50
0 NEI11_OTHPT_OCPO     -                                                               -        -                     - -   -        OCPO 257/1007/268 1   50

# NON-EGU INDUSTRIAL STACKS
0 NEI11_PTNONIPM_NH3   $ROOT/NEI2011/v2015-03/$MM/NEI11_0.1x0.1_2011$MM$DD_ptnonipm.nc NH3      2006-2013/1-12/1-31/* R xyz kg/m2/s  NH3  253/1007     1   50
0 NEI11_PTNONIPM_SO2   $ROOT/NEI2011/v2015-03/$MM/NEI11_0.1x0.1_2011$MM$DD_ptnonipm.nc SO2      2006-2013/1-12/1-31/* R xyz kg/m2/s  SO2  255/1007     1   50
0 NEI11_PTNONIPM_SULF  $ROOT/NEI2011/v2015-03/$MM/NEI11_0.1x0.1_2011$MM$DD_ptnonipm.nc SULF     2006-2013/1-12/1-31/* R xyz kg/m2/s  SO2  255/1007     1   50
0 NEI11_PTNONIPM_SO4   $ROOT/NEI2011/v2015-03/$MM/NEI11_0.1x0.1_2011$MM$DD_ptnonipm.nc PSO4     2006-2013/1-12/1-31/* R xyz kg/m2/s  SO4  255/1007     1   50
0 NEI11_PTNONIPM_BCPI  $ROOT/NEI2011/v2015-03/$MM/NEI11_0.1x0.1_2011$MM$DD_ptnonipm.nc PEC      2006-2013/1-12/1-31/* R xyz kg/m2/s  BCPI 256/1007/265 1   50
0 NEI11_PTNONIPM_BCPO  -                                                               -        -                     - -   -        BCPO 256/1007/266 1   50
0 NEI11_PTNONIPM_OCPI  $ROOT/NEI2011/v2015-03/$MM/NEI11_0.1x0.1_2011$MM$DD_ptnonipm.nc POC      2006-2013/1-12/1-31/* R xyz kg/m2/s  OCPI 257/1007/267 1   50
0 NEI11_PTNONIPM_OCPO  -                                                               -        -                     - -   -        OCPO 257/1007/268 1   50
)))NEI2011

#==============================================================================
# --- STREETS SE ASIA (Zhang et al., 2009) ---
#==============================================================================
(((STREETS
0 ZHANG_SO2__IND  $ROOT/STREETS/v2014-07/2006/Streets_CO_NO_SO2_2006.generic.1x1.nc SO2_ind 2006/1/1/0 C xy kg/m2/s SO2  11/14/1003        1/2 40 
0 ZHANG_SO4__IND  -                                                                 -       -          - -  -       SO4  11/14/63/1003     1/2 40 
0 ZHANG_SO2__POW  $ROOT/STREETS/v2014-07/2006/Streets_CO_NO_SO2_2006.generic.1x1.nc SO2_pow 2006/1/1/0 C xy kg/m2/s SO2  11/14/1003        1/2 40 
0 ZHANG_SO4__POW  -                                                                 -       -          - -  -       SO4  11/14/63/1003     1/2 40 
0 ZHANG_SO2__RES  $ROOT/STREETS/v2014-07/2006/Streets_CO_NO_SO2_2006.generic.1x1.nc SO2_res 2006/1/1/0 C xy kg/m2/s SO2  11/14/1003        1/2 40 
0 ZHANG_SO4__RES  -                                                                 -       -          - -  -       SO4  11/14/63/1003     1/2 40 
0 ZHANG_SO2__TRA  $ROOT/STREETS/v2014-07/2006/Streets_CO_NO_SO2_2006.generic.1x1.nc SO2_tra 2006/1/1/0 C xy kg/m2/s SO2  11/14/1003        1/2 40 
0 ZHANG_SO4__TRA  -                                                                 -       -          - -  -       SO4  11/14/63/1003     1/2 40 

# --> NH3 emissions are only available for year 2000:
0 STREETS_NH3     $ROOT/STREETS/v2014-07/2000/Streets_2000.generic.1x1.nc      NH3_tot      2000/1/1/0 C xy kg/m2/s NH3  38/1003           1/2 40 
)))STREETS

#==============================================================================
# --- MIX v1.1 (Asia) ---
#==============================================================================
(((MIX
0 MIX_SO2_IND  $ROOT/MIX/v2015-03/MIX_Asia_SO2.generic.025x025.nc  SO2_INDUSTRY     2008-2010/1-12/1/0 C xy kg/m2/s  SO2  11/29/1006    1/2 45
0 MIX_SO4_IND  -                                                   -                -                  - -  -        SO4  11/29/63/1006 1/2 45
0 MIX_SO2_POW  $ROOT/MIX/v2015-03/MIX_Asia_SO2.generic.025x025.nc  SO2_POWER        2008-2010/1-12/1/0 C xy kg/m2/s  SO2  11/29/1006    1/2 45
0 MIX_SO4_POW  -                                                   -                -                  - -  -        SO4  11/29/63/1006 1/2 45
0 MIX_SO2_RES  $ROOT/MIX/v2015-03/MIX_Asia_SO2.generic.025x025.nc  SO2_RESIDENTIAL  2008-2010/1-12/1/0 C xy kg/m2/s  SO2  11/29/1006    1/2 45
0 MIX_SO4_RES  -                                                   -                -                  - -  -        SO4  11/29/63/1006 1/2 45
0 MIX_SO2_TRA  $ROOT/MIX/v2015-03/MIX_Asia_SO2.generic.025x025.nc  SO2_TRANSPORT    2008-2010/1-12/1/0 C xy kg/m2/s  SO2  11/29/1006    1/2 45
0 MIX_SO4_TRA  -                                                   -                -                  - -  -        SO4  11/29/63/1006 1/2 45
0 MIX_NH3_IND  $ROOT/MIX/v2015-03/MIX_Asia_NH3.generic.025x025.nc  NH3_INDUSTRY     2008-2010/1-12/1/0 C xy kg/m2/s  NH3  1006          1/2 45
0 MIX_NH3_POW  $ROOT/MIX/v2015-03/MIX_Asia_NH3.generic.025x025.nc  NH3_POWER        2008-2010/1-12/1/0 C xy kg/m2/s  NH3  1006          1/2 45
0 MIX_NH3_RES  $ROOT/MIX/v2015-03/MIX_Asia_NH3.generic.025x025.nc  NH3_RESIDENTIAL  2008-2010/1-12/1/0 C xy kg/m2/s  NH3  1006          1/2 45
0 MIX_NH3_TRA  $ROOT/MIX/v2015-03/MIX_Asia_NH3.generic.025x025.nc  NH3_TRANSPORT    2008-2010/1-12/1/0 C xy kg/m2/s  NH3  1006          1/2 45
0 MIX_NH3_AGR  $ROOT/MIX/v2015-03/MIX_Asia_NH3.generic.025x025.nc  NH3_AGRICULTURE  2008-2010/1-12/1/0 C xy kg/m2/s  NH3  1006          1/2 45
)))MIX

#==============================================================================
# --- Ship emissions ---
#
# ==> In the defaults, ARCTAS SO2 has priority over ICOADS, CORBETT, and HTAP.
#     This can be ovewritten by EMEP over Europe.
# ==> Do not use ship emissions from EDGAR v4.2 since they are lumped with
#     other non-road transportation (aircraft, rail, etc.) emissions
#==============================================================================
(((SHIP
0  ARCTAS_SHIP_SO2     $ROOT/ARCTAS_SHIP/v2014-07/ARCTAS_ship.generic.1x1.nc           SO2             2008/1/1/0             C xy kg/m2/s  SO2  11           10 1
#0 CORBETT_SHIP_SO2    $ROOT/CORBETT_SHIP/v2014-07/CORBETT_ship.geos.1x1.nc            SO2_SHIP        1985/1-12/1/0          C xy kg/m2/s  SO2  -            10 3
#0 ICOADS_SHIP_SO2     $ROOT/ICOADS_SHIP/v2014-07/ICOADS.generic.1x1.nc                SO2             2002/1-12/1/0          C xy kg/m2/s  SO2  11/15/60     10 5
#0 HTAP_SHIP_SO2       $ROOT/HTAP/v2015-03/EDGAR_HTAP_SO2_SHIPS.generic.01x01.nc       emi_so2         2008-2010/1/1/0        C xy kg/m2/s  SO2  11/29        10 2

(((EMEP
0 EMEP_SHIP_SO2        $ROOT/EMEP/v2015-03/EMEP.generic.1x1.nc                         ShipSO2         1990-2012/1/1/0        C xy kg/m2/s  SO2  61/1000      10 2
)))EMEP

(((NEI2011_SHIP
#0 NEI11_C3MARINE_NH3  $ROOT/NEI2011/v2015-03/$MM/NEI11_0.1x0.1_2011$MM$DD_c3marine.nc NH3             2006-2013/$MM/$DD/* R xy kg/m2/s  NH3  253/1007     10 50
0 NEI11_C3MARINE_SO2   $ROOT/NEI2011/v2015-03/$MM/NEI11_0.1x0.1_2011$MM$DD_c3marine.nc SO2             2006-2013/$MM/$DD/* R xy kg/m2/s  SO2  255/1007     10 50
0 NEI11_C3MARINE_SULF  $ROOT/NEI2011/v2015-03/$MM/NEI11_0.1x0.1_2011$MM$DD_c3marine.nc SULF            2006-2013/$MM/$DD/* R xy kg/m2/s  SO2  255/1007     10 50
0 NEI11_C3MARINE_SO4   $ROOT/NEI2011/v2015-03/$MM/NEI11_0.1x0.1_2011$MM$DD_c3marine.nc PSO4            2006-2013/$MM/$DD/* R xy kg/m2/s  SO4  255/1007     10 50
0 NEI11_C3MARINE_BCPI  $ROOT/NEI2011/v2015-03/$MM/NEI11_0.1x0.1_2011$MM$DD_c3marine.nc PEC             2006-2013/$MM/$DD/* R xy kg/m2/s  BCPI 256/1007/265 10 50
0 NEI11_C3MARINE_BCPO  -                                                               -               -                   - -  -        BCPO 256/1007/266 10 50
0 NEI11_C3MARINE_OCPI  $ROOT/NEI2011/v2015-03/$MM/NEI11_0.1x0.1_2011$MM$DD_c3marine.nc POC             2006-2013/$MM/$DD/* R xy kg/m2/s  OCPI 257/1007/267 10 50
0 NEI11_C3MARINE_OCPO  -                                                               -               -                   - -  -        OCPO 257/1007/268 10 50
)))NEI2011_SHIP

)))SHIP
 
#==============================================================================
# --- BC/OC emissions from Tami Bond ---
#
# ==> Don't use biomass burning emissions if GFED extension is used!
# ==> Now emit all BC and OC as hydrophilic (tracers BCPI, OCPI).  Then we
#     apply factors to get the hydrophobic fraction (tracers BCPO, OCPO).
#==============================================================================
(((BOND
0 BOND_ANTH_BCPI $ROOT/BCOC_BOND/v2014-07/Bond_fossil.nc  BC   2000/1-12/1/0 C xy kg/m2/s BCPI 70 1 1
0 BOND_ANTH_BCPO -                                        -    -             - -  -       BCPO 71 1 1
0 BOND_ANTH_OCPI $ROOT/BCOC_BOND/v2014-07/Bond_fossil.nc  OC   2000/1-12/1/0 C xy kg/m2/s OCPI 72 1 1
0 BOND_ANTH_OCPO -                                        -    -             - -  -       OCPO 73 1 1
0 BOND_ANTH_POG1 -                                        -    -             - -  -       POG1 74 1 1
0 BOND_BF_BCPI   $ROOT/BCOC_BOND/v2014-07/Bond_biofuel.nc BC   2000/1-12/1/0 C xy kg/m2/s BCPI 70 2 1
0 BOND_BF_BCPO   -                                        -    -             - -  -       BCPO 71 2 1
0 BOND_BF_OCPI   $ROOT/BCOC_BOND/v2014-07/Bond_biofuel.nc OC   2000/1-12/1/0 C xy kg/m2/s OCPI 72 2 1
0 BOND_BF_OCPO   -                                        -    -             - -  -       OCPO 73 2 1
0 BOND_BF_POA1   -                                        -    -             - -  -       POA1 74 2 1

(((.not.GFED.or.FINN
0 BOND_BM_BCPI   $ROOT/BCOC_BOND/v2014-07/Bond_biomass.nc BC   2000/1-12/1/0 C xy kg/m2/s BCPI 70 2 1
0 BOND_BM_BCPO   -                                        -    -             - -  -       BCPO 71 2 1
0 BOND_BM_OCPI   $ROOT/BCOC_BOND/v2014-07/Bond_biomass.nc OC   2000/1-12/1/0 C xy kg/m2/s OCPI 72 2 1
0 BOND_BM_OCPO   -                                        -    -             - -  -       OCPO 73 2 1
0 BOND_BF_POA1   -                                        -    -             - -  -       POA1 74 2 1
))).not.GFED.or.FINN

)))BOND

#==============================================================================
# --- BC/OC emissions over NA from Cooke et al. (1999) ---
#
# ==> don't use in standard simulation
#==============================================================================
##0 COOKE_ANTH_BC $ROOT/BCOC_COOKE/v2014-07/BCOC_Cooke_fossil.gen.1x1.nc  BCPI 1998/1-12/1/0 C xy kg/m2/s BC 1004 1 2
##0 COOKE_ANTH_OC $ROOT/BCOC_COOKE/v2014-07/BCOC_Cooke_fossil.gen.1x1.nc  OCPI 1998/1-12/1/0 C xy kg/m2/s OC 1004 1 2
##0 COOKE_BF_BC   $ROOT/BCOC_COOKE/v2014-07/BCOC_Cooke_biofuel.gen.1x1.nc BCPI 1998/1-12/1/0 C xy kg/m2/s BC 1004 2 2
##0 COOKE_BF_OC   $ROOT/BCOC_COOKE/v2014-07/BCOC_Cooke_biofuel.gen.1x1.nc OCPI 1998/1-12/1/0 C xy kg/m2/s OC 1004 2 2

#==============================================================================
# --- AEIC aircraft emissions ---
#
# ==> Now emit aircraft BC and OC into hydrophilic tracers BCPI and OCPI.
#==============================================================================
(((AEIC
0 AEIC_SO2  $ROOT/AEIC/v2015-01/AEIC.47L.gen.1x1.nc  FUELBURN 2005/1-12/1/0 C xyz kg/m2/s SO2  111     20 1 
0 AEIC_SO4  -                                        -        -             - -   -       SO4  112     20 1 
0 AEIC_BCPI -                                        -        -             - -   -       BCPI 113     20 1 
0 AEIC_OCPI -                                        -        -             - -   -       OCPI 113     20 1 
)))AEIC

#==============================================================================
# --- Volcanic emissions ---
#==============================================================================
(((VOLCANO
0 VOLCANO_SO2_ERUPT $ROOT/VOLCANO/v2015-02/$YYYY/volc_so2_gen.1x1.47L.$YYYY$MM.nc SO2_erupt 1979-2009/1-12/1-31/0 C xyz kg/m2/s SO2 - 51 1
0 VOLCANO_SO2_DEGAS $ROOT/VOLCANO/v2015-02/$YYYY/volc_so2_gen.1x1.47L.$YYYY$MM.nc SO2_degas 1979-2009/1-12/1-31/0 C xyz kg/m2/s SO2 - 52 1
)))VOLCANO

#==============================================================================
# --- RCP future emissions scenarios ---
#==============================================================================
(((RCP_3PD
0 RCP3PD_BCPO $ROOT/RCP/v2015-02/RCP_3PD/RCPs_anthro_BC_2005-2100_23474.nc  ACCMIP 2005-2100/1/1/0 I xy kg/m2/s  BCPO - 1 1
0 RCP3PD_OCPO $ROOT/RCP/v2015-02/RCP_3PD/RCPs_anthro_OC_2005-2100_23474.nc  ACCMIP 2005-2100/1/1/0 I xy kg/m2/s  OCPO - 1 1
0 RCP3PD_SO2  $ROOT/RCP/v2015-02/RCP_3PD/RCPs_anthro_SO2_2005-2100_23474.nc ACCMIP 2005-2100/1/1/0 I xy kg/m2/s  SO2  - 1 1
0 RCP3PD_NH3  $ROOT/RCP/v2015-02/RCP_3PD/RCPs_anthro_NH3_2005-2100_23474.nc ACCMIP 2005-2100/1/1/0 I xy kg/m2/s  NH3  - 1 1
)))RCP_3PD

(((RCP_45 
0 RCP45_BCPO  $ROOT/RCP/v2015-02/RCP_45/RCPs_anthro_BC_2005-2100_27424.nc   ACCMIP 2005-2100/1/1/0 I xy kg/m2/s  BCPO - 1 1
0 RCP45_OCPO  $ROOT/RCP/v2015-02/RCP_45/RCPs_anthro_OC_2005-2100_27424.nc   ACCMIP 2005-2100/1/1/0 I xy kg/m2/s  OCPO - 1 1
0 RCP45_SO2   $ROOT/RCP/v2015-02/RCP_45/RCPs_anthro_SO2_2005-2100_27424.nc  ACCMIP 2005-2100/1/1/0 I xy kg/m2/s  SO2  - 1 1
0 RCP45_NH3   $ROOT/RCP/v2015-02/RCP_45/RCPs_anthro_NH3_2005-2100_27424.nc  ACCMIP 2005-2100/1/1/0 I xy kg/m2/s  NH3  - 1 1
)))RCP_45

(((RCP_60 
0 RCP60_BCPO  $ROOT/RCP/v2015-02/RCP_60/RCPs_anthro_BC_2005-2100_43190.nc   ACCMIP 2005-2100/1/1/0 I xy kg/m2/s  BCPO - 1 1
0 RCP60_OCPO  $ROOT/RCP/v2015-02/RCP_60/RCPs_anthro_OC_2005-2100_43190.nc   ACCMIP 2005-2100/1/1/0 I xy kg/m2/s  OCPO - 1 1
0 RCP60_SO2   $ROOT/RCP/v2015-02/RCP_60/RCPs_anthro_SO2_2005-2100_43190.nc  ACCMIP 2005-2100/1/1/0 I xy kg/m2/s  SO2  - 1 1
0 RCP60_NH3   $ROOT/RCP/v2015-02/RCP_60/RCPs_anthro_NH3_2005-2100_43190.nc  ACCMIP 2005-2100/1/1/0 I xy kg/m2/s  NH3  - 1 1
)))RCP_60

(((RCP_85 
0 RCP85_BCPO  $ROOT/RCP/v2015-02/RCP_85/RCPs_anthro_BC_2005-2100_43533.nc   ACCMIP 2005-2100/1/1/0 I xy kg/m2/s  BCPO - 1 1
0 RCP85_OCPO  $ROOT/RCP/v2015-02/RCP_85/RCPs_anthro_OC_2005-2100_43533.nc   ACCMIP 2005-2100/1/1/0 I xy kg/m2/s  OCPO - 1 1
0 RCP85_SO2   $ROOT/RCP/v2015-02/RCP_85/RCPs_anthro_SO2_2005-2100_43533.nc  ACCMIP 2005-2100/1/1/0 I xy kg/m2/s  SO2  - 1 1
0 RCP85_NH3   $ROOT/RCP/v2015-02/RCP_85/RCPs_anthro_NH3_2005-2100_43533.nc  ACCMIP 2005-2100/1/1/0 I xy kg/m2/s  NH3  - 1 1
)))RCP_85

#==============================================================================
# --- QFED2 biomass burning ---
#==============================================================================
(((QFED2
0 QFED_BCPI  $ROOT/QFED/v2014-09/$YYYY/$MM/qfed2.emis_bc.005.$YYYY$MM$DD.nc4   biomass 2000-2013/1-12/1-31/0 C xy kg/m2/s BCPI 70/75 3 2 
0 QFED_BCPO  -                                                                 -       -                     - -  -       BCPO 71/75 3 2 
0 QFED_OCPI  $ROOT/QFED/v2014-09/$YYYY/$MM/qfed2.emis_oc.005.$YYYY$MM$DD.nc4   biomass 2000-2013/1-12/1-31/0 C xy kg/m2/s OCPI 72/75 3 2 
0 QFED_OCPO  -                                                                 -       -                     - -  -       OCPO 73/75 3 2 
0 QFED_NH3   $ROOT/QFED/v2014-09/$YYYY/$MM/qfed2.emis_nh3.005.$YYYY$MM$DD.nc4  biomass 2000-2013/1-12/1-31/0 C xy kg/m2/s NH3  75    3 2 
0 QFED_SO2   $ROOT/QFED/v2014-09/$YYYY/$MM/qfed2.emis_so2.005.$YYYY$MM$DD.nc4  biomass 2000-2013/1-12/1-31/0 C xy kg/m2/s SO2  75    3 2 
)))QFED2

###############################################################################
### EXTENSION DATA (subsection of BASE EMISSIONS SECTION)
###
### These fields are needed by the extensions listed above. The assigned ExtNr 
### must match the ExtNr entry in section 'Extension switches'. These fields 
### are only read if the extension is enabled.  The fields are imported by the
### extensions by field name.  The name given here must match the name used 
### in the extension's source code. 
###############################################################################

#==============================================================================
# --- Seawater concentrations for oceanic emissions (Extension 101) ---
#==============================================================================
101 DMS_SEAWATER    $ROOT/DMS/v2015-07/DMS_lana.geos.1x1.nc          DMS_OCEAN  1985/1-12/1/0 C xy kg/m3 DMS  - 1 1
101 ACET_SEAWATER   $ROOT/ACET/v2014-07/ACET_seawater.generic.1x1.nc ACET       2005/1/1/0    C xy kg/m3 ACET - 1 1 

#==============================================================================
# --- dust emissions using DEAD model (Extension 105) ---
#==============================================================================
105 DEAD_EF_GEO   $ROOT/DUST_DEAD/v2014-07/dst_tibds.geos.4x5.nc     EF_GEO   1985/1/1/0    C xy factor   * - 1 1
105 DEAD_LF_DRY   $ROOT/DUST_DEAD/v2014-07/dst_tibds.geos.4x5.nc     LF_DRY   1985/1/1/0    C xy factor   * - 1 1
105 DEAD_MF_CACO3 $ROOT/DUST_DEAD/v2014-07/dst_tibds.geos.4x5.nc     MF_CaCO3 1985/1/1/0    C xy fraction * - 1 1
105 DEAD_MF_CLY   $ROOT/DUST_DEAD/v2014-07/dst_tibds.geos.4x5.nc     MF_CLY   1985/1/1/0    C xy fraction * - 1 1
105 DEAD_MF_SND   $ROOT/DUST_DEAD/v2014-07/dst_tibds.geos.4x5.nc     MF_SND   1985/1/1/0    C xy fraction * - 1 1
105 DEAD_SFC_TYP  $ROOT/DUST_DEAD/v2014-07/dst_tibds.geos.4x5.nc     SFC_TYP  1985/1/1/0    C xy unitless * - 1 1
105 DEAD_GOC_SRC  $ROOT/DUST_DEAD/v2014-07/GOCART_src_fn.geos.4x5.nc GOC_SRC  1985/1/1/0    C xy unitless * - 1 1
105 DEAD_VAI      $ROOT/DUST_DEAD/v2014-07/dst_tvbds.geos.4x5.nc     VAI      1985/1-12/1/0 C xy unitless * - 1 1

#==============================================================================
# --- Dust emissions using Paul Ginoux's mechanism (Extension 106) 
#==============================================================================
106 GINOUX_SAND   $ROOT/DUST_GINOUX/v2014-07/NSP.dust.geos.4x5.nc  SAND  1985/1/1/0 C xy unitless * - 1 1 
106 GINOUX_SILT   $ROOT/DUST_GINOUX/v2014-07/NSP.dust.geos.4x5.nc  SILT  1985/1/1/0 C xy unitless * - 1 1 
106 GINOUX_CLAY   $ROOT/DUST_GINOUX/v2014-07/NSP.dust.geos.4x5.nc  CLAY  1985/1/1/0 C xy unitless * - 1 1 

#==============================================================================
# --- Sea salt emissions (Extension 107) 
#==============================================================================
# --- No external data --- 

#==============================================================================
# --- MEGAN biogenic emissions (Extension 108)
#
# NOTE: These are the base emissions, which will be converted to kgC/m2/s by 
# HEMCO. The specified species (OCPI/ISOP/ACET) are required for proper unit 
# conversion. Since netCDF files are already in mass carbon (ug(C)), the only 
# important thing is to specify a VOC with a specified MW of 12g/mol. 
# This is the case for OCPI, ISOP and ACET.
#
# We don't need to read EF maps for acetone, a-pinene or myrcene. We now
# compute those values in the MEGAN extension.
#==============================================================================
108  T_DAVG                       ./HEMCO_restart.$YYYY$MM$DD$HH00.nc          T_DAVG                  $YYYY/$MM/$DD/$HH E xy K        * - 1 1
108  T_PREVDAY                    ./HEMCO_restart.$YYYY$MM$DD$HH00.nc          T_PREVDAY               $YYYY/$MM/$DD/$HH E xy K        * - 1 1
108  LAI_PREVDAY                  ./HEMCO_restart.$YYYY$MM$DD$HH00.nc          LAI_PREVDAY             $YYYY/$MM/$DD/$HH E xy 1        * - 1 1
108  PARDR_DAVG                   ./HEMCO_restart.$YYYY$MM$DD$HH00.nc          PARDR_DAVG              $YYYY/$MM/$DD/$HH E xy W/m2     * - 1 1
108  PARDF_DAVG                   ./HEMCO_restart.$YYYY$MM$DD$HH00.nc          PARDF_DAVG              $YYYY/$MM/$DD/$HH E xy W/m2     * - 1 1
108  MEGAN_AEF_ISOP               $ROOT/MEGAN/v2015-02/MEGAN2.1_EF.geos.1x1.nc AEF_ISOPRENE            1985/1/1/0        C xy kgC/m2/s * - 1 1
109  MEGAN_AEF_MBOX               $ROOT/MEGAN/v2015-02/MEGAN2.1_EF.geos.1x1.nc AEF_MBO                 1985/1/1/0        C xy kgC/m2/s * - 1 1
#109 MEGAN_AEF_APIN               $ROOT/MEGAN/v2015-02/MEGAN2.1_EF.geos.1x1.nc AEF_ALPHA_PINENE        1985/1/1/0        C xy kgC/m2/s * - 1 1
109  MEGAN_AEF_BPIN               $ROOT/MEGAN/v2015-02/MEGAN2.1_EF.geos.1x1.nc AEF_BETA_PINENE         1985/1/1/0        C xy kgC/m2/s * - 1 1
109  MEGAN_AEF_CARE               $ROOT/MEGAN/v2015-02/MEGAN2.1_EF.geos.1x1.nc AEF_CARENE              1985/1/1/0        C xy kgC/m2/s * - 1 1
109  MEGAN_AEF_LIMO               $ROOT/MEGAN/v2015-02/MEGAN2.1_EF.geos.1x1.nc AEF_LIMONENE            1985/1/1/0        C xy kgC/m2/s * - 1 1
#109 MEGAN_AEF_MYRC               $ROOT/MEGAN/v2015-02/MEGAN2.1_EF.geos.1x1.nc AEF_MYRCENE             1985/1/1/0        C xy kgC/m2/s * - 1 1
109  MEGAN_AEF_OCIM               $ROOT/MEGAN/v2015-02/MEGAN2.1_EF.geos.1x1.nc AEF_OCIMENE             1985/1/1/0        C xy kgC/m2/s * - 1 1
109  MEGAN_AEF_SABI               $ROOT/MEGAN/v2015-02/MEGAN2.1_EF.geos.1x1.nc AEF_SABINENE            1985/1/1/0        C xy kgC/m2/s * - 1 1
108  CLM4_PFT_BARE                $ROOT/MEGAN/v2015-02/CLM4_PFT.geos.1x1.nc    PFT_BARE                2000/1/1/0        C xy 1        * - 1 1
108  CLM4_PFT_NDLF_EVGN_TMPT_TREE $ROOT/MEGAN/v2015-02/CLM4_PFT.geos.1x1.nc    PFT_NDLF_EVGN_TMPT_TREE 2000/1/1/0        C xy 1        * - 1 1
108  CLM4_PFT_NDLF_EVGN_BORL_TREE $ROOT/MEGAN/v2015-02/CLM4_PFT.geos.1x1.nc    PFT_NDLF_EVGN_BORL_TREE 2000/1/1/0        C xy 1        * - 1 1
108  CLM4_PFT_NDLF_DECD_BORL_TREE $ROOT/MEGAN/v2015-02/CLM4_PFT.geos.1x1.nc    PFT_NDLF_DECD_BORL_TREE 2000/1/1/0        C xy 1        * - 1 1
108  CLM4_PFT_BDLF_EVGN_TROP_TREE $ROOT/MEGAN/v2015-02/CLM4_PFT.geos.1x1.nc    PFT_BDLF_EVGN_TROP_TREE 2000/1/1/0        C xy 1        * - 1 1
108  CLM4_PFT_BDLF_EVGN_TMPT_TREE $ROOT/MEGAN/v2015-02/CLM4_PFT.geos.1x1.nc    PFT_BDLF_EVGN_TMPT_TREE 2000/1/1/0        C xy 1        * - 1 1
108  CLM4_PFT_BDLF_DECD_TROP_TREE $ROOT/MEGAN/v2015-02/CLM4_PFT.geos.1x1.nc    PFT_BDLF_DECD_TROP_TREE 2000/1/1/0        C xy 1        * - 1 1
108  CLM4_PFT_BDLF_DECD_TMPT_TREE $ROOT/MEGAN/v2015-02/CLM4_PFT.geos.1x1.nc    PFT_BDLF_DECD_TMPT_TREE 2000/1/1/0        C xy 1        * - 1 1
108  CLM4_PFT_BDLF_DECD_BORL_TREE $ROOT/MEGAN/v2015-02/CLM4_PFT.geos.1x1.nc    PFT_BDLF_DECD_BORL_TREE 2000/1/1/0        C xy 1        * - 1 1
108  CLM4_PFT_BDLF_EVGN_SHRB      $ROOT/MEGAN/v2015-02/CLM4_PFT.geos.1x1.nc    PFT_BDLF_EVGN_SHRB      2000/1/1/0        C xy 1        * - 1 1
108  CLM4_PFT_BDLF_DECD_TMPT_SHRB $ROOT/MEGAN/v2015-02/CLM4_PFT.geos.1x1.nc    PFT_BDLF_DECD_TMPT_SHRB 2000/1/1/0        C xy 1        * - 1 1
108  CLM4_PFT_BDLF_DECD_BORL_SHRB $ROOT/MEGAN/v2015-02/CLM4_PFT.geos.1x1.nc    PFT_BDLF_DECD_BORL_SHRB 2000/1/1/0        C xy 1        * - 1 1
108  CLM4_PFT_C3_ARCT_GRSS        $ROOT/MEGAN/v2015-02/CLM4_PFT.geos.1x1.nc    PFT_C3_ARCT_GRSS        2000/1/1/0        C xy 1        * - 1 1
108  CLM4_PFT_C3_NARC_GRSS        $ROOT/MEGAN/v2015-02/CLM4_PFT.geos.1x1.nc    PFT_C3_NARC_GRSS        2000/1/1/0        C xy 1        * - 1 1
108  CLM4_PFT_C4_GRSS             $ROOT/MEGAN/v2015-02/CLM4_PFT.geos.1x1.nc    PFT_C4_GRSS             2000/1/1/0        C xy 1        * - 1 1
108  CLM4_PFT_CROP                $ROOT/MEGAN/v2015-02/CLM4_PFT.geos.1x1.nc    PFT_CROP                2000/1/1/0        C xy 1        * - 1 1
110  MEGAN_ORVC                   $ROOT/SOA/v2014-07/NVOC.geos.1x1.nc          OCPI                    1990/1-12/1/0     C xy kgC/m2/s * - 1 1

#==============================================================================
# --- GFED biomass burning emissions (Extension 111) 
# NOTE: These are the base emissions in kgDM/m2/s.
#==============================================================================

(((GFED3
111 GFED_HUMTROP    $ROOT/GFED3/v2014-10/GFED3_humtropmap.nc              humtrop           2000/1/1/0             C xy unitless  * - 1 1
111 GFED_WDL        $ROOT/GFED3/v2014-10/GFED3_gen.1x1.$YYYY.nc           GFED3_BB__WDL_DM  1997-2011/1-12/01/0    C xy kgDM/m2/s * - 1 1
111 GFED_AGW        $ROOT/GFED3/v2014-10/GFED3_gen.1x1.$YYYY.nc           GFED3_BB__AGW_DM  1997-2011/1-12/01/0    C xy kgDM/m2/s * - 1 1
111 GFED_DEF        $ROOT/GFED3/v2014-10/GFED3_gen.1x1.$YYYY.nc           GFED3_BB__DEF_DM  1997-2011/1-12/01/0    C xy kgDM/m2/s * - 1 1
111 GFED_FOR        $ROOT/GFED3/v2014-10/GFED3_gen.1x1.$YYYY.nc           GFED3_BB__FOR_DM  1997-2011/1-12/01/0    C xy kgDM/m2/s * - 1 1
111 GFED_PET        $ROOT/GFED3/v2014-10/GFED3_gen.1x1.$YYYY.nc           GFED3_BB__PET_DM  1997-2011/1-12/01/0    C xy kgDM/m2/s * - 1 1
111 GFED_SAV        $ROOT/GFED3/v2014-10/GFED3_gen.1x1.$YYYY.nc           GFED3_BB__SAV_DM  1997-2011/1-12/01/0    C xy kgDM/m2/s * - 1 1

(((GFED_daily
111 GFED_FRAC_DAY   $ROOT/GFED3/v2014-10/GFED3_dailyfrac_gen.1x1.$YYYY.nc GFED3_BB__DAYFRAC 2002-2011/1-12/1-31/0  R xy unitless  * - 1 1 
)))GFED_daily

(((GFED_3hourly
111 GFED_FRAC_3HOUR $ROOT/GFED3/v2014-10/GFED3_3hrfrac_gen.1x1.$YYYY.nc   GFED3_BB__HRFRAC  2002-2011/1-12/01/0-23 R xy unitless  * - 1 1 
)))GFED_3hourly
)))GFED3

(((GFED4
111 GFED_TEMP       $ROOT/GFED4/v2015-10/$YYYY/GFED4_gen.025x025.$YYYY$MM.nc  DM_TEMP       1997-2014/1-12/01/0    C xy kgDM/m2/s * - 1 1
111 GFED_AGRI       $ROOT/GFED4/v2015-10/$YYYY/GFED4_gen.025x025.$YYYY$MM.nc  DM_AGRI       1997-2014/1-12/01/0    C xy kgDM/m2/s * - 1 1
111 GFED_DEFO       $ROOT/GFED4/v2015-10/$YYYY/GFED4_gen.025x025.$YYYY$MM.nc  DM_DEFO       1997-2014/1-12/01/0    C xy kgDM/m2/s * - 1 1
111 GFED_BORF       $ROOT/GFED4/v2015-10/$YYYY/GFED4_gen.025x025.$YYYY$MM.nc  DM_BORF       1997-2014/1-12/01/0    C xy kgDM/m2/s * - 1 1
111 GFED_PEAT       $ROOT/GFED4/v2015-10/$YYYY/GFED4_gen.025x025.$YYYY$MM.nc  DM_PEAT       1997-2014/1-12/01/0    C xy kgDM/m2/s * - 1 1
111 GFED_SAVA       $ROOT/GFED4/v2015-10/$YYYY/GFED4_gen.025x025.$YYYY$MM.nc  DM_SAVA       1997-2014/1-12/01/0    C xy kgDM/m2/s * - 1 1

(((GFED_daily
111 GFED_FRAC_DAY   $ROOT/GFED4/v2015-10/$YYYY/GFED4_dailyfrac_gen.025x025.$YYYY$MM.nc GFED_FRACDAY 2003-2014/1-12/1-31/0  C xy 1 * - 1 1
)))GFED_daily

(((GFED_3hourly
111 GFED_FRAC_3HOUR $ROOT/GFED4/v2015-10/$YYYY/GFED4_3hrfrac_gen.025x025.$YYYY$MM.nc   GFED_FRAC3HR 2003-2014/1-12/1/0-23  C xy 1 * - 1 1
)))GFED_3hourly
)))GFED4

#==============================================================================
# --- FINN biomass burning emissions (Extension 114) 
#==============================================================================
(((.not.FINN_daily
114 FINN_VEGTYP1       $ROOT/FINN/v2015-02/FINN_monthly_$YYYY_0.25x0.25.compressed.nc fire_vegtype1 $YYYY/1-12/1/0 C xy kg/m2/s * - 1 1
114 FINN_VEGTYP2       $ROOT/FINN/v2015-02/FINN_monthly_$YYYY_0.25x0.25.compressed.nc fire_vegtype2 $YYYY/1-12/1/0 C xy kg/m2/s * - 1 1
114 FINN_VEGTYP3       $ROOT/FINN/v2015-02/FINN_monthly_$YYYY_0.25x0.25.compressed.nc fire_vegtype3 $YYYY/1-12/1/0 C xy kg/m2/s * - 1 1
114 FINN_VEGTYP4       $ROOT/FINN/v2015-02/FINN_monthly_$YYYY_0.25x0.25.compressed.nc fire_vegtype4 $YYYY/1-12/1/0 C xy kg/m2/s * - 1 1
114 FINN_VEGTYP5       $ROOT/FINN/v2015-02/FINN_monthly_$YYYY_0.25x0.25.compressed.nc fire_vegtype5 $YYYY/1-12/1/0 C xy kg/m2/s * - 1 1
114 FINN_VEGTYP9       $ROOT/FINN/v2015-02/FINN_monthly_$YYYY_0.25x0.25.compressed.nc fire_vegtype9 $YYYY/1-12/1/0 C xy kg/m2/s * - 1 1
))).not.FINN_daily

(((FINN_daily
114 FINN_DAILY_VEGTYP1 $ROOT/FINN/v2015-02/FINN_daily_$YYYY_0.25x0.25.compressed.nc   fire_vegtype1 $YYYY/1-12/1/0 C xy kg/m2/s * - 1 1
114 FINN_DAILY_VEGTYP2 $ROOT/FINN/v2015-02/FINN_daily_$YYYY_0.25x0.25.compressed.nc   fire_vegtype2 $YYYY/1-12/1/0 C xy kg/m2/s * - 1 1
114 FINN_DAILY_VEGTYP3 $ROOT/FINN/v2015-02/FINN_daily_$YYYY_0.25x0.25.compressed.nc   fire_vegtype3 $YYYY/1-12/1/0 C xy kg/m2/s * - 1 1
114 FINN_DAILY_VEGTYP4 $ROOT/FINN/v2015-02/FINN_daily_$YYYY_0.25x0.25.compressed.nc   fire_vegtype4 $YYYY/1-12/1/0 C xy kg/m2/s * - 1 1
114 FINN_DAILY_VEGTYP5 $ROOT/FINN/v2015-02/FINN_daily_$YYYY_0.25x0.25.compressed.nc   fire_vegtype5 $YYYY/1-12/1/0 C xy kg/m2/s * - 1 1
114 FINN_DAILY_VEGTYP9 $ROOT/FINN/v2015-02/FINN_daily_$YYYY_0.25x0.25.compressed.nc   fire_vegtype9 $YYYY/1-12/1/0 C xy kg/m2/s * - 1 1
)))FINN_daily

###############################################################################
### NON-EMISSIONS DATA (subsection of BASE EMISSIONS SECTION)
###
### Non-emissions data. The following fields are read through HEMCO but do 
### not contain emissions data. The extension number is set to wildcard 
### character denoting that these fields will not be considered for emission 
### calculation. A given entry is only read if the assigned species name is 
### an HEMCO species.
###############################################################################

#==============================================================================
# --- Time zones (offset to UTC) ---
#==============================================================================
* TIMEZONES $ROOT/TIMEZONES/v2015-02/timezones_1x1.nc UTC_OFFSET 2000/1/1/0 C xy count * - 1 1

#==============================================================================
# --- UV albedo, for photolysis (cf Hermann & Celarier, 1997) ---
#==============================================================================
(((+UValbedo+
* UV_ALBEDO $ROOT/UVALBEDO/v2015-03/uvalbedo.geos.2x25.nc UVALBD 1985/1-12/1/0 C xy percent * - 1 1
)))+UValbedo+

#==============================================================================
# --- TOMS/SBUV overhead ozone colums, for photolysis ---
#==============================================================================
(((+TOMS_SBUV_O3+
* TOMS_O3_COL   $ROOT/TOMS_SBUV/v2015-03/TOMS_O3col_$YYYY.geos.1x1.nc TOMS   1971-2010/1-12/1/0 C xy dobsons     * - 1 1
* DTOMS1_O3_COL -                                                     DTOMS1 -                  - -  dobsons/day * - 1 1 
* DTOMS2_O3_COL -                                                     DTOMS2 -                  - -  dobsons/day * - 1 1
)))+TOMS_SBUV_O3+

#==============================================================================
# --- Oxidant fields for offline aerosols ---
#
# (needed for chemistry, not used for emission calculation)
#==============================================================================
* PH2O2       $ROOT/OFFLINE_AEROSOL/v2014-09/PH2O2.geos5.2x25.nc       PH2O2 1985/1-12/1/0 C xyz kg/m3/s * - 1 1
* JH2O2       $ROOT/OFFLINE_AEROSOL/v2014-09/JH2O2.geos5.2x25.nc       JH2O2 1985/1-12/1/0 C xyz 1/s     * - 1 1
* O3          $ROOT/OFFLINE_AEROSOL/v2014-09/O3.geos5.2x25.nc          O3    1985/1-12/1/0 C xyz v/v     * - 1 1
* GLOBAL_NO3  $ROOT/OFFLINE_AEROSOL/v2014-09/NO3.geos5.2x25.nc         NO3   1985/1-12/1/0 C xyz v/v     * - 1 1
* GLOBAL_HNO3 $ROOT/OFFLINE_AEROSOL/v2014-09/THNO3.geos5.2x25.nc       THNO3 1985/1-12/1/0 C xyz v/v     * - 1 1
* GLOBAL_OH   $ROOT/OH/v2014-09/v5-07-08/OH_3Dglobal.geos5.72L.2x25.nc OH    1985/1-12/1/0 C xyz kg/m3 * - 1 1

### END SECTION BASE EMISSIONS ###

###############################################################################
### BEGIN SECTION SCALE FACTORS 
###############################################################################

# ScalID Name sourceFile sourceVar sourceTime C/R/E SrcDim SrcUnit Oper

#==============================================================================
# --- annual scale factors ---
#==============================================================================
1  TOTFUEL_THISYR    $ROOT/AnnualScalar/v2014-07/AnnualScalar.geos.1x1.nc NOxscalar 1985-2010/1/1/0 C xy 1  1
2  TOTFUEL_1985      $ROOT/AnnualScalar/v2014-07/AnnualScalar.geos.1x1.nc NOxscalar 1985/1/1/0      C xy 1 -1
3  TOTFUEL_1999      $ROOT/AnnualScalar/v2014-07/AnnualScalar.geos.1x1.nc NOxscalar 1999/1/1/0      C xy 1 -1
4  TOTFUEL_2006      $ROOT/AnnualScalar/v2014-07/AnnualScalar.geos.1x1.nc NOxscalar 2006/1/1/0      C xy 1 -1
5  TOTFUEL_2002      $ROOT/AnnualScalar/v2014-07/AnnualScalar.geos.1x1.nc NOxscalar 2002/1/1/0      C xy 1 -1
16 TOTFUEL_2005      $ROOT/AnnualScalar/v2014-07/AnnualScalar.geos.1x1.nc NOxscalar 2005/1/1/0      C xy 1 -1
27 TOTFUEL_2008_2010 $ROOT/AnnualScalar/v2014-07/AnnualScalar.geos.1x1.nc NOxscalar 2008-2010/1/1/0 C xy 1 -1
40 TOTFUEL_1985_2008 $ROOT/AnnualScalar/v2014-07/AnnualScalar.geos.1x1.nc NOxscalar 1985-2008/1/1/0 C xy 1 -1
6  LIQFUEL_THISYR    $ROOT/AnnualScalar/v2014-07/AnnualScalar.geos.1x1.nc COscalar  1985-2010/1/1/0 C xy 1  1
7  LIQFUEL_1985      $ROOT/AnnualScalar/v2014-07/AnnualScalar.geos.1x1.nc COscalar  1985/1/1/0      C xy 1 -1
8  LIQFUEL_1999      $ROOT/AnnualScalar/v2014-07/AnnualScalar.geos.1x1.nc COscalar  1999/1/1/0      C xy 1 -1
9  LIQFUEL_2006      $ROOT/AnnualScalar/v2014-07/AnnualScalar.geos.1x1.nc COscalar  2006/1/1/0      C xy 1 -1
10 LIQFUEL_2002      $ROOT/AnnualScalar/v2014-07/AnnualScalar.geos.1x1.nc COscalar  2002/1/1/0      C xy 1 -1
17 LIQFUEL_2005      $ROOT/AnnualScalar/v2014-07/AnnualScalar.geos.1x1.nc COscalar  2005/1/1/0      C xy 1 -1
28 LIQFUEL_2008_2010 $ROOT/AnnualScalar/v2014-07/AnnualScalar.geos.1x1.nc COscalar  2008-2010/1/1/0 C xy 1 -1
41 LIQFUEL_1985_2008 $ROOT/AnnualScalar/v2014-07/AnnualScalar.geos.1x1.nc COscalar  1985-2008/1/1/0 C xy 1 -1
11 SOLFUEL_THISYR    $ROOT/AnnualScalar/v2014-07/AnnualScalar.geos.1x1.nc SO2scalar 1985-2010/1/1/0 C xy 1  1
12 SOLFUEL_1985      $ROOT/AnnualScalar/v2014-07/AnnualScalar.geos.1x1.nc SO2scalar 1985/1/1/0      C xy 1 -1
13 SOLFUEL_1999      $ROOT/AnnualScalar/v2014-07/AnnualScalar.geos.1x1.nc SO2scalar 1999/1/1/0      C xy 1 -1
14 SOLFUEL_2006      $ROOT/AnnualScalar/v2014-07/AnnualScalar.geos.1x1.nc SO2scalar 2006/1/1/0      C xy 1 -1
15 SOLFUEL_2002      $ROOT/AnnualScalar/v2014-07/AnnualScalar.geos.1x1.nc SO2scalar 2002/1/1/0      C xy 1 -1
18 SOLFUEL_2005      $ROOT/AnnualScalar/v2014-07/AnnualScalar.geos.1x1.nc SO2scalar 2005/1/1/0      C xy 1 -1
19 SOLFUEL_2008      $ROOT/AnnualScalar/v2014-07/AnnualScalar.geos.1x1.nc SO2scalar 2008/1/1/0      C xy 1 -1
29 SOLFUEL_2008_2010 $ROOT/AnnualScalar/v2014-07/AnnualScalar.geos.1x1.nc SO2scalar 2008-2010/1/1/0 C xy 1 -1
42 SOLFUEL_1985_2008 $ROOT/AnnualScalar/v2014-07/AnnualScalar.geos.1x1.nc SO2scalar 1985-2008/1/1/0 C xy 1 -1
23 LIQFUEL_2008      $ROOT/AnnualScalar/v2014-07/AnnualScalar.geos.1x1.nc COscalar  2008/1/1/0      C xy 1 -1
24 TOTFUEL_2008      $ROOT/AnnualScalar/v2014-07/AnnualScalar.geos.1x1.nc NOxscalar 2008/1/1/0      C xy 1 -1

#==============================================================================
# --- temporary scale factors for comparisons
#==============================================================================
919 NO_ratio $ROOT/AnnualScalar/v2014-07/NO_ratio_2005_2002.nc NOXscalar 2005/1/1/0 C xy unitless 1
918 CO_ratio $ROOT/AnnualScalar/v2014-07/CO_ratio_2005_1985.nc COscalar 2005/1/1/0 C xy unitless 1

#==============================================================================
# --- day-of-week scale factors ---
# ==> data is Sun/Mon/.../Sat 
#==============================================================================
20 GEIA_DOW_NOX 0.784/1.0706/1.0706/1.0706/1.0706/1.0706/0.863 - - - xy unitless 1
21 GEIA_DOW_CO  0.683/1.1076/1.0706/1.0706/1.0706/1.0706/0.779 - - - xy unitless 1
22 GEIA_DOW_HC  0.671/1.1102/1.1102/1.1102/1.1102/1.1102/0.768 - - - xy unitless 1 

#==============================================================================
# --- diurnal scale factors --- 
#==============================================================================
25 EDGAR_TODNOX $ROOT/EDGARv42/v2015-02/NO/EDGAR_hourly_NOxScal.nc NOXscale 2000/1/1/HH C xy unitless 1
26 GEIA_TOD_FOSSIL 0.45/0.45/0.6/0.6/0.6/0.6/1.45/1.45/1.45/1.45/1.4/1.4/1.4/1.4/1.45/1.45/1.45/1.45/0.65/0.65/0.65/0.65/0.45/0.45 - - - xy unitless 1

#==============================================================================
# --- seasonal scale factors ---
#==============================================================================
# from GEIA:
30 GEIA_SEASON_NOX  $ROOT/GEIA/v2014-07/GEIA_monthscal.generic.1x1.nc NOXrat 1985/1-12/1/0 C xy unitless 1
31 GEIA_SEASON_SO2  $ROOT/GEIA/v2014-07/GEIA_monthscal.generic.1x1.nc SO2rat 1985/1-12/1/0 C xy unitless 1

# from EMEP:
32 EMEP_SEASON_NOX $ROOT/EMEP/v2015-03/EMEP.Seasonal.geos.1x1.nc NOXrat 2005/1-12/1/0 C xy unitless 1
33 EMEP_SEASON_CO  $ROOT/EMEP/v2015-03/EMEP.Seasonal.geos.1x1.nc COrat  2005/1-12/1/0 C xy unitless 1
34 EMEP_SEASON_NH3 $ROOT/EMEP/v2015-03/EMEP.Seasonal.geos.1x1.nc NH3rat 2005/1-12/1/0 C xy unitless 1
35 EMEP_SEASON_SO2 $ROOT/EMEP/v2015-03/EMEP.Seasonal.geos.1x1.nc SO2rat 2005/1-12/1/0 C xy unitless 1

# from Streets:
36 ZHANG_SEASON_NOX   $ROOT/STREETS/v2014-07/2006/Streets_2004_NOx_MonthFctr_total.generic.1x1.nc NOxrat    2004/1-12/1/0 C xy unitless 1
37 ZHANG_SEASON_CO    $ROOT/STREETS/v2014-07/2006/Streets_2001_CO_MonthFctr_total.generic.1x1.nc  ratio     2001/1-12/1/0 C xy unitless 1 
38 STREETS_SEASON_NH3 $ROOT/STREETS/v2014-07/2000/Streets_NH3_scale.generic.1x1.nc                NH3_scale 1995/1-12/1/0 C xy unitless 1 

# for Bromocarbons:
39 BROMOCARB_SEASON $ROOT/BROMINE/v2015-02/BromoCarb_Season.nc CHXBRY_scale 2000/1-12/1/0 C xy unitless 1

#==============================================================================
# --- VOC speciations ---
#==============================================================================

50 RETRO_KET2MEK    0.25  - - - xy unitless 1
51 RETRO_KET2ACET   0.75  - - - xy unitless 1
52 COPROD_FOSSIL    1.02  - - - xy unitless 1
53 COPROD_BIOFUEL   1.086 - - - xy unitless 1
54 COPROD_BIOMASS   1.05  - - - xy unitless 1
55 ACETSCAL_FOSSIL  0.82  - - - xy unitless 1
56 ACETSCAL_BIOFUEL 0.82  - - - xy unitless 1

#==============================================================================
# --- SOx to SO2 conversion (Chin et al., 2000) ---
#==============================================================================
60 SOX2SO2_GLOBAL 0.986 - - - xy unitless 1
61 SOX2SO2_EU     0.95  - - - xy unitless 1
62 SULFUR2SOX     2.0   - - - xy unitless 1
63 SO2toSO4       0.031 - - - xy unitless 1
64 SOX2SO4_EU     0.05  - - - xy unitless 1
65 SO2toSO4_CAC   0.014 - - - xy unitless 1

#==============================================================================
# --- Carbon aerosols: speciation of hydrophilic and hydrophobic fractions ---
#
# Fractions applied to the biomass burning extensions (GFED3 or FINN) are
# specified separately in the extensions section.
#==============================================================================
70 BC2BCPI  0.2  - - - xy unitless 1
71 BC2BCPO  0.8  - - - xy unitless 1
72 OC2OCPI  0.5  - - - xy unitless 1
73 OC2OCPO  0.5  - - - xy unitless 1
74 POASCAL  1.27 - - - xy unitless 1

#==============================================================================
# --- QFED2 diurnal scale factors ---
#
# Fire diurnal scaling factors (% per hour) from WRAP Report to Project
# No. 178-6, July 2005
#==============================================================================
75 QFED2_TOD 0.1392/0.1392/0.1368/0.1368/0.1368/0.1368/0.1368/0.1368/0.1368/0.48/0.96/1.68/2.4/3.12/3.84/4.08/2.88/1.68/0.96/0.1368/0.1368/0.1368/0.1368/0.1368 - - - xy unitless 1

#==============================================================================
# --- NAP scale factors ---
#
# Get anthropogenic (FF) NAP emissions by scaling BENZ emissions with the
# following factor. Factor is ratio of TgC NAP to TgC BENZ emissions
# or equivalently, molec C NAP to molec C BENZ. Scaling should produce
# about 0.09 TgC NAP/year, consistent with non-BB,BF emissions predicted
# by Zhang and Tao 2009 Atm Env
# Based on year 2000 1x1 inv  (hotp 11/14/09)
#REAL*8, PARAMETER    :: NAPTOBENZSCALE = 0.06861d0

# NAPTOTSCAL: factor to scale total NAP emissions to POA (hotp 7/24/09)
#REAL*8, PARAMETER    :: NAPTOTALSCALE = 66.09027d0
 
# = CO emissions * emissions ratio of mol NAP / mol CO 
# * kg C / mol NAP * mol CO / kg CO 
# mmol NAP / mol CO = 0.025 g NAP/ kg DM / 
#              ( 78 g CO/ kg DM ) * 28 g CO / mol CO
#            / ( 128 g NAP / mol NAP ) *1000 mmol/mol
# scale emissions down if appropriate to remove the
# effect of VOC ox on CO emission
# EF for NAP from Andreae and Merlet 2001 Glob Biog Cyc
# EF for CO  from Andreae and Merlet 2001 Glob Biog Cyc
#BIOFUEL_KG(N,:,:) = BIOFUEL_KG(IDBFCO,:,:) * 0.0701d-3 
#                  * 120d0 / 28d0 * COSCALEDOWN
#==============================================================================
80 NAPEMISS   1.0     - - - xy unitless 1

#==============================================================================
# --- Biofuel conversion factors ---
#==============================================================================
91 BF_COtoSO2   3.43e-3 - - - xy unitless 1

#==============================================================================
# --- AEIC aircraft emissions ---
#
# Sulfur conversion factors are calculated as 
#     so4 = 3 * a * b and so2 = 2 * a * (1-b)
#
# where 
#     a = fraction by mass (6.0e-4) and 
#     b = conversion efficiency (2.0e-2).
#
# The factors 2 and 3 come from sulfur mass conversions (96/32 and 64/32).
# All factors are taken from AEIC_mod.F, following Seb Estham's appraoch.
# Note that all emissions become multiplied by a factor of 1e-3 (except for 
# the fuelburn emissions) in the original AEIC code. I'm not sure if this 
# is because the netCDF data is in g instead of kg?
#==============================================================================
110 AEICNOCO 1.000000e-3 - -  - xy unitless 1
111 AEICSO2  1.176000e-3 - -  - xy unitless 1
112 AEICSO4  3.600000e-5 - -  - xy unitless 1
113 AEICBC   3.000000e-5 - -  - xy unitless 1
114 AEICHC   1.160000e-3 - -  - xy unitless 1
115 NO2toNO  6.521739e-1 - -  - xy unitless 1

#==============================================================================
# --- NEI 2005 scale factors ---
#==============================================================================
201 VISTAS_SEASON     $ROOT/NEI2005/v2014-09/scaling/Vistas_season.geos.1x1.nc       NOratio      2002/1-12/1/0  C xy unitless 1
202 ARP_SEASON        $ROOT/NEI2005/v2014-09/scaling/ARP_season.geos.1x1.nc          NOxrat  1999-2007/1-12/1/0  C xy unitless 1
218 NEI99_DOW_SO2     $ROOT/NEI2005/v2014-09/scaling/NEI99.dow.geos.1x1.nc           SO2          1999/1-12/WD/0 C xy unitless 1
219 NEI99_DOW_SO4     $ROOT/NEI2005/v2014-09/scaling/NEI99.dow.geos.1x1.nc           SO4          1999/1-12/WD/0 C xy unitless 1
220 NEI99_DOW_MSA     $ROOT/NEI2005/v2014-09/scaling/NEI99.dow.geos.1x1.nc           MSA          1999/1-12/WD/0 C xy unitless 1
221 NEI99_DOW_BCPI    $ROOT/NEI2005/v2014-09/scaling/NEI99.dow.geos.1x1.nc           BCPI         1999/1-12/WD/0 C xy unitless 1
222 NEI99_DOW_OCPI    $ROOT/NEI2005/v2014-09/scaling/NEI99.dow.geos.1x1.nc           OCPI         1999/1-12/WD/0 C xy unitless 1
237 NEI99_SEASON_SO2  $ROOT/NEI2005/v2014-09/scaling/NEI99.season.geos.1x1.nc        SO2          1999/1-12/1/0  C xy unitless 1
238 NEI99_SEASON_SO4  $ROOT/NEI2005/v2014-09/scaling/NEI99.season.geos.1x1.nc        SO4          1999/1-12/1/0  C xy unitless 1
239 NEI99_SEASON_MSA  $ROOT/NEI2005/v2014-09/scaling/NEI99.season.geos.1x1.nc        MSA          1999/1-12/1/0  C xy unitless 1
240 NEI99_SEASON_BCPI $ROOT/NEI2005/v2014-09/scaling/NEI99.season.geos.1x1.nc        BCPI         1999/1-12/1/0  C xy unitless 1
241 NEI99_SEASON_OCPI $ROOT/NEI2005/v2014-09/scaling/NEI99.season.geos.1x1.nc        OCPI         1999/1-12/1/0  C xy unitless 1
242 NEI99_SEASON_NH3  0.216/0.418/0.622/0.815/0.982/0.974/1.0/0.9/0.96/0.6/0.28/0.236 -            -             - xy unitless 1

#==============================================================================
# --- NEI 20011 scale factors ---
#==============================================================================
253 NEI11_NH3_YRSCALE 0.966/1.002/1.019/1.015/1.010/1.0/0.999/0.998 - 2006-2013/1/1/0 C xy 1 1 
255 NEI11_SO2_YRSCALE 2.038/1.813/1.600/1.408/1.200/1.0/0.800/0.738 - 2006-2013/1/1/0 C xy 1 1 
256 NEI11_BC_YRSCALE  1.006/1.034/0.996/0.995/0.993/1.0/0.995/0.991 - 2006-2013/1/1/0 C xy 1 1 
257 NEI11_OC_YRSCALE  1.006/1.034/0.996/0.995/0.993/1.0/0.995/0.991 - 2006-2013/1/1/0 C xy 1 1 
265 NEI11_BC2BCPI     0.2                                           - -               - xy 1 1
266 NEI11_BC2BCPO     0.8                                           - -               - xy 1 1
267 NEI11_OC2OCPI     0.5                                           - -               - xy 1 1
268 NEI11_OC2OCPO     0.5                                           - -               - xy 1 1

### END SECTION SCALE FACTORS ###

###############################################################################
### BEGIN SECTION MASKS 
###############################################################################

# ScalID Name sourceFile sourceVar sourceTime C/R/E SrcDim SrcUnit Oper Lon1/Lat1/Lon2/Lat2

#==============================================================================
# Country/region masks
#==============================================================================
1000 EMEP_MASK   $ROOT/MASKS/v2014-07/EMEP_mask.geos.1x1.20151222.nc   MASK     2000/1/1/0 C xy unitless 1 -30/30/45/70
1001 MEXICO_MASK $ROOT/MASKS/v2014-07/BRAVO.MexicoMask.generic.1x1.nc  MASK     2000/1/1/0 C xy unitless 1 -118/17/-95/33
1002 CANADA_MASK $ROOT/MASKS/v2014-07/Canada_mask.geos.1x1.nc          MASK     2000/1/1/0 C xy unitless 1 -141/40/-52/85
1003 SEASIA_MASK $ROOT/MASKS/v2014-07/SE_Asia_mask.generic.1x1.nc      MASK     2000/1/1/0 C xy unitless 1  60/-12/153/55
1004 NA_MASK     $ROOT/MASKS/v2014-07/NA_mask.geos.1x1.nc              MASK     2000/1/1/0 C xy unitless 1 -165/10/-40/90
1005 USA_MASK    $ROOT/MASKS/v2014-07/usa.mask.nei2005.geos.1x1.nc     MASK     2000/1/1/0 C xy unitless 1 -165/10/-40/90
1006 ASIA_MASK   $ROOT/MASKS/v2014-07/MIX_Asia_mask.generic.025x025.nc MASK     2000/1/1/0 C xy unitless 1 46/-12/180/82
1007 NEI11_MASK  $ROOT/MASKS/v2014-07/USA_LANDMASK_NEI2011_0.1x0.1.nc  LANDMASK 2000/1/1/0 C xy 1        1 -140/20/-50/60

### END SECTION MASKS ###

### END OF HEMCO INPUT FILE ###
#EOC
