#------------------------------------------------------------------------------
#                  Harvard-NASA Emissions Component (HEMCO)                   !
#------------------------------------------------------------------------------
#BOP
#
# !MODULE: HEMCO_Config.rc
#
# !DESCRIPTION: Contains configuration information for HEMCO.  Define the
#  emissions inventories and corresponding file paths here.
#\\
#\\
# !REMARKS:
#  The following tokens will be replaced:
#  (1) ROOT    : Filepath to HEMCO root directory
#  (2) MET     : Met field type (from G-C compilation command)
#  (3) GRID    : Horizontal grid type (from G-C compilation command)
#  (4) SIM     : Simulation type (from G-C compilation command)
#  (5) NEST    : Nested-grid type (CH, EU, NA, SE)
#  (6) LNOX    : String for OTD/LIS lightning NOx files:
#                (a) For GEOS-5 this is either "geos5.1.0" or "geos5.2.0".  
#                (b) For other met fields, this is the same as MET.
#  (7) LEVRED  : String w/ the # of levels in the reduced GEOS-Chem grid
#                as used in some filenames (e.g. "23L", "30L", "47L")
#  (8) LEVFULL : String w/ the # of levels in the full GEOS-Chem grid
#                as used in some filenames (e.g. "55L", "72L")
# 
# !REMARKS:
#  Customized for the Hg simulation simulation. 
#
# !REVISION HISTORY: 
#  26 Sep 2014 - C. Keller   - Initial version
#  07 Oct 2014 - R. Yantosca - Now use HEMCO tokens $ROOT, $MET, $RES
#  20 Oct 2014 - R. Yantosca - Now read GFED data from GFED3/v2014-10
#  16 Feb 2015 - C. Keller   - (a) Added data 'collections' (brackets).
#                              (b) Moved section extension switches at the
#                                  beginning.
#                              (c) Removed section extension data. These fields
#                                  are now listed in section base emissions.
#                              (d) Fields can now cover multiple categories.
#EOP
#------------------------------------------------------------------------------
#BOC
#
###############################################################################
### BEGIN SECTION SETTINGS
###############################################################################
#
ROOT:                        {ROOT}
Logfile:                     HEMCO.log
DiagnPrefix:                 HEMCO_diagnostics
Wildcard:                    *
Separator:                   /
Unit tolerance:              1
Negative values:             0
Only unitless scale factors: false
Verbose:                     true
Track code:                  false
Show warnings:               true
#
END SECTION SETTINGS 

###############################################################################
### BEGIN SECTION EXTENSION SWITCHES
###############################################################################
###
### This section lists all emission extensions available to HEMCO and whether 
### they shall be used or not. Extension 'base' must have extension number 
### zero, all other extension numbers can be freely chosen. Data fields in 
### section 'base emissions' will only be read if the corresponding extension 
### (identified by ExtNr) is enabled. Similarly, fields grouped into data 
### collections ('(((CollectionName', ')))CollectionName') are only considered
### if the corresponding data collection is enabled in this section.
###
### All species to be used by HEMCO can be given explicitly in the Species 
### section of extension 'Base'. For example,
###
### 0       Base              : on    NO/NO2/CO
###
### will only activate NO, NO2 and CO as HEMCO species. All other fields will 
### be ignored entirely. This is even true for species only used in another 
### extension. For instance, if the dust emission extension shall be used, 
### the dust species must be set explicitly as base species:
###
### 0       Base              : on    NO/NO2/CO/DST1/DST2/DST3/DST4
###
### The wildcard character can be used to use all possible species (species 
### used in HEMCO and defined by GEOS-Chem). This is recommended:
###
### 0       Base              : on    *
###
### Make sure that the ExtNr provided here matches with the ExtNr provided in 
### the base emissions sections. Otherwise, the listed files won't be read!
###############################################################################
# ExtNr ExtName           on/off  Species
0       Base              : on    *
    --> STREETS           :       true
    --> NEI2005           :       true
    --> ARTISANAL         :       true
    --> NATURAL           :       true
    --> SOILDIST          :       true
    --> BrOx_GC           :       true
    --> BrOx_TOMCAT       :       false
    --> BrOx_GMI          :       true
    --> LRED_JNO2         :       true
# ----------------------------------------------------------------------------
111     GFED3             : on    Hg0
    --> CO scale factor   :       1.05
112     GFED3_daily       : off   -
113     GFED3_3hourly     : off   -
#
END SECTION EXTENSION SWITCHES 

###############################################################################
### BEGIN SECTION BASE EMISSIONS 
###############################################################################
# ExtNr	Name sourceFile	sourceVar sourceTime C/R/E SrcDim SrcUnit Species ScalIDs Cat Hier

#==============================================================================
# --- Streets anthropogenic emissions ---
#
# NOTE: HgP emissions are added to Hg2 emissions!
#==============================================================================
(((STREETS
0 STREETS_HG0 $ROOT/MERCURY/v2014-09/STREETS/GEIA_Streets_PRESENT_geos.1x1.nc Hg0 2006/1/1/0 C xy kg/m2/s Hg0 - 1 1
0 STREETS_HG2 $ROOT/MERCURY/v2014-09/STREETS/GEIA_Streets_PRESENT_geos.1x1.nc Hg2 2006/1/1/0 C xy kg/m2/s Hg2 - 1 1
0 STREETS_HGP $ROOT/MERCURY/v2014-09/STREETS/GEIA_Streets_PRESENT_geos.1x1.nc HgP 2006/1/1/0 C xy kg/m2/s Hg2 - 1 1
)))STREETS

#==============================================================================
# --- NEI 2005 anthropogenic emissions (NA only) ---
#
# NOTE: HgP emissions are added to Hg2 emissions!
#==============================================================================
(((NEI2005
0 NEI2005_HG0 $ROOT/MERCURY/v2014-09/NEI2005/NEI2005.geos5.4x5.nc Hg0 2005/1/1/0 C xy kg/m2/s Hg0 1004 1 2
0 NEI2005_HG2 $ROOT/MERCURY/v2014-09/NEI2005/NEI2005.geos5.4x5.nc Hg2 2005/1/1/0 C xy kg/m2/s Hg2 1004 1 2
0 NEI2005_HGP $ROOT/MERCURY/v2014-09/NEI2005/NEI2005.geos5.4x5.nc HgP 2005/1/1/0 C xy kg/m2/s Hg2 1004 1 2
)))NEI2005

#==============================================================================
# --- Artisanal mining ---
#==============================================================================
(((ARTISANAL
0 ARTISANAL_HG0 $ROOT/MERCURY/v2014-09/ARTISANAL/artisanal.geos.4x5.nc Hg0 1985/1/1/0 C xy kg/m2/s Hg0 1 8 1
)))ARTISANAL

#==============================================================================
# --- Natural emissions ---
#==============================================================================
(((NATURAL
0 NATURAL_HG0 $ROOT/MERCURY/v2014-09/NATURAL/newnatural.geos.4x5.nc Hg0 1985/1/1/0 C xy kg/m2/s Hg0 2 3 1
)))NATURAL

#==============================================================================
# --- Soil distribution factor (pointer is imported in mercury_mod.F) ---
#==============================================================================
(((SOILDIST
0 HG0_SOILDIST $ROOT/MERCURY/v2014-09/SOIL/soilHg.merra.presentday.4x5.nc HG0_DIST 1985/1/1/0 C xy unitless * - 1 1
)))SOILDIST

###############################################################################
### EXTENSION DATA (subsection of BASE EMISSIONS SECTION)
###
### These fields are needed by the extensions listed above. The assigned ExtNr 
### must match the ExtNr entry in section 'Extension switches'. These fields 
### are only read if the extension is enabled.  The fields are imported by the
### extensions by field name.  The name given here must match the name used 
### in the extension's source code. 
###############################################################################

#==============================================================================
# --- GFED3 biomass burning emissions (Extension 111) 
# NOTE: These are the base emissions in kgDM/m2/s.
#==============================================================================
111 GFED3_WDL        $ROOT/GFED3/v2014-10/GFED3_gen.1x1.$YYYY.nc           GFED3_BB__WDL_DM  1997-2011/1-12/01/0    C xy kgDM/m2/s * - 1 1
111 GFED3_AGW        $ROOT/GFED3/v2014-10/GFED3_gen.1x1.$YYYY.nc           GFED3_BB__AGW_DM  1997-2011/1-12/01/0    C xy kgDM/m2/s * - 1 1
111 GFED3_DEF        $ROOT/GFED3/v2014-10/GFED3_gen.1x1.$YYYY.nc           GFED3_BB__DEF_DM  1997-2011/1-12/01/0    C xy kgDM/m2/s * - 1 1
111 GFED3_FOR        $ROOT/GFED3/v2014-10/GFED3_gen.1x1.$YYYY.nc           GFED3_BB__FOR_DM  1997-2011/1-12/01/0    C xy kgDM/m2/s * - 1 1
111 GFED3_PET        $ROOT/GFED3/v2014-10/GFED3_gen.1x1.$YYYY.nc           GFED3_BB__PET_DM  1997-2011/1-12/01/0    C xy kgDM/m2/s * - 1 1
111 GFED3_SAV        $ROOT/GFED3/v2014-10/GFED3_gen.1x1.$YYYY.nc           GFED3_BB__SAV_DM  1997-2011/1-12/01/0    C xy kgDM/m2/s * - 1 1
111 HUMTROP          $ROOT/GFED3/v2014-10/GFED3_humtropmap.nc              humtrop           2000/1/1/0             C xy unitless  * - 1 1
112 GFED3_FRAC_DAY   $ROOT/GFED3/v2014-10/GFED3_dailyfrac_gen.1x1.$YYYY.nc GFED3_BB__DAYFRAC 2002-2011/1-12/1-31/0  C xy unitless  * - 1 1
113 GFED3_FRAC_3HOUR $ROOT/GFED3/v2014-10/GFED3_3hrfrac_gen.1x1.$YYYY.nc   GFED3_BB__HRFRAC  2002-2011/1-12/01/0-23 C xy unitless  * - 1 1

###############################################################################
### NON-EMISSIONS DATA (subsection of BASE EMISSIONS SECTION)
###
### Non-emissions data. The following fields are read through HEMCO but do 
### not contain emissions data. The extension number is set to wildcard 
### character denoting that these fields will not be considered for emission 
### calculation. A given entry is only read if the assigned species name is 
### an HEMCO species.
###############################################################################

#==============================================================================
# --- Time zones (offset to UTC) ---
#==============================================================================
* TIMEZONES $ROOT/TIMEZONES/v2015-02/timezones_1x1.nc UTC_OFFSET 2000/1/1/0 C xy count * - 1 1

#==============================================================================
# --- Oxidant fields (O3, OH) ---
#==============================================================================
* GLOBAL_O3  $ROOT/O3/v2014-09/MERGE.O3.geos5.72L.2x25.nc                 O3 1985/1-12/1/0 C xyz v/v   * - 1 1
* GLOBAL_OH  $ROOT/OH/v2014-09/v7-02-03.GMI/OH_3Dglobal.geos5.72L.2x25.nc OH 1985/1-12/1/0 C xyz kg/m3 * - 1 1

#==============================================================================
# --- BrOx fields --
#==============================================================================
(((BrOx_GC
* Br_GC      $ROOT/MERCURY/v2014-09/BrOx/BrOx.GC.geos5.2x25.nc  Br     2007/1-12/1/0 C xyz ppbv * - 1 1
* BrO_GC     -                                                  BrO    -             - -   ppbv * - 1 1
)))BrOx_GC

(((BrOx_TOMCAT
* Br_TOMCAT  $ROOT/MERCURY/v2014-09/BrOx/BrOx.GMI.geos5.2x25.nc LBRO2N 1985/1-12/1/0 C xyz pptv * - 1 1
* BrO_TOMCAT -                                                  LBRO2H -             - -   pptv * - 1 1
)))BrOx_TOMCAT

(((BrOx_GMI
* Br_GMI     $ROOT/MERCURY/v2014-09/BrOx/BrOx.GMI.geos5.2x25.nc LBRO2N 1985/1-12/1/0 C xyz pptv * - 1 1
* BrO_GMI    -                                                  LBRO2H -             - -   pptv * - 1 1
)))BrOx_GMI

#==============================================================================
# --- J-value fields ---
#==============================================================================
* JBrO $ROOT/MERCURY/v2014-09/JVALUES/jBrO.daytime.geos5.2x25.nc JBrO 2002/1-12/1/0 C xyz s-1 * - 1 1
(((LRED_JNO2
* JNO2 $ROOT/MERCURY/v2014-09/JVALUES/jvalues.noon.geos5.2x25.nc JNO2 2005/1-12/1/0 C xyz s-1 * - 1 1
)))LRED_JNO2

#==============================================================================
# --- Aerosol data for Hg2 partitioning ---
#==============================================================================
* AERO_SO4  $ROOT/MERCURY/v2014-09/Hg2_PARTITION/aero.IJ_AVG.2007.geos5.2x25.nc SO4  2007/1/1/0 C xyz ppbv * - 1 1
* AERO_NH4  -                                                                   NH4  -          - -   ppbv * - 1 1
* AERO_NIT  -                                                                   NIT  -          - -   ppbv * - 1 1
* AERO_BCPI -                                                                   BCPI -          - -   ppbv * - 1 1
* AERO_BCPO -                                                                   BCPO -          - -   ppbv * - 1 1
* AERO_OCPI -                                                                   OCPI -          - -   ppbv * - 1 1
* AERO_OCPO -                                                                   OCPO -          - -   ppbv * - 1 1
* AERO_DST1 -                                                                   DST1 -          - -   ppbv * - 1 1

END SECTION BASE EMISSIONS 

################################################################################
### BEGIN SECTION SCALE FACTORS 
###############################################################################
# ScalID Name sourceFile sourceVar sourceTime C/R/E SrcDim SrcUnit Oper

# --- Scale factors for artisanal and soil emissions ---
1 ARTISANALSCALE 0.75 - - - xy 1 1
2 SOILSCALE      0.5  - - - xy 1 1

END SECTION SCALE FACTORS 

###############################################################################
### BEGIN SECTION MASKS 
###############################################################################
# ScalID Name sourceFile sourceVar sourceTime C/R/E SrcDim SrcUnit Oper Lon1/Lat1/Lon2/Lat2

1004 NA_MASK $ROOT/MASKS/v2014-07/NA_mask.geos.1x1.nc MASK 1985/1/1/0 C xy 1 1 -165/10/-40/90

END SECTION MASKS 
 
### END OF HEMCO INPUT FILE ###
#EOC