#------------------------------------------------------------------------------
#                  Harvard-NASA Emissions Component (HEMCO)                   !
#------------------------------------------------------------------------------
#BOP
#
# !MODULE: HEMCO_Config.rc
#
# !DESCRIPTION: Contains configuration information for HEMCO. Define the
#  emissions inventories and corresponding file paths here. Entire 
#  configuration files can be inserted into this configuration file with
#  an '>>>include' statement, e.g. '>>>include HEMCO\_Config\_test.rc' 
#  The settings of include-files will be ignored.
#\\
#\\
# !REMARKS:
#  The following tokens will be replaced:
#  (1) ROOT    : Filepath to HEMCO root directory
#  (2) CFDIR   : Filepath to directory of this configuration file. 
#  (3) MET     : Met field type (from G-C compilation command)
#  (4) GRID    : Horizontal grid type (from G-C compilation command)
#  (5) SIM     : Simulation type (from G-C compilation command)
#  (6) NEST    : Nested-grid type (CH, EU, NA, SE)
#  (7) LEVRED  : String w/ the # of levels in the reduced GEOS-Chem grid
#                as used in some filenames (e.g. "23L", "30L", "47L")
#  (8) LEVFULL : String w/ the # of levels in the full GEOS-Chem grid
#                as used in some filenames (e.g. "55L", "72L")
# 
# !REMARKS:
#  Customized for the POPs simulation for BaP. 
#
# !REVISION HISTORY: 
#  19 Aug 2014 - M. Sulprizio- Initial version
#  15 Sep 2014 - M. Sulprizio- Now include global OC, BC, O3 and OH in GC_POPs
#                              extension data list
#  22 Sep 2014 - R. Yantosca - Add replaceable token {ROOT} in data paths
#  07 Oct 2014 - R. Yantosca - Now use HEMCO tokens $ROOT, $MET, $RES
#  16 Feb 2015 - C. Keller   - (a) Added data 'collections' (brackets).
#                              (b) Moved section extension switches at the
#                                  beginning.
#                              (c) Removed section extension data. These fields
#                                  are now listed in section base emissions.
#                              (d) Fields can now cover multiple categories.
#  11 Mar 2015 - C. Keller   - Added 'negative' bracket, e.g. data within a
#                              bracket leading by '--' is only considered if 
#                              this collection name is disabled.
#  12 Mar 2015 - R. Yantosca - Now read oxidant fields on 2x25 72 level grid
#  13 Mar 2015 - C. Keller   - Added option to include other configuration 
#                              files by listing them as '>>>include CF_Name'.
#                              Added token '$CFDIR'. 
#  27 Mar 2015 - C. Keller   - Warnings are now 0-3
#  21 Apr 2015 - R. Yantosca - Now can use extension names as switches
#  21 Apr 2015 - R. Yantosca - Now make section endings more visible
#  19 May 2015 - R. Yantosca - Now use tokens for VERBOSE, WARNINGS
#  27 Aug 2015 - M. Sulprizio- Added updates from Carey Friedman for v11-01c:
#                              (a) Use updated POPs emission file that 
#                                  considers wildfire distributions
#                              (b) Add SURF_POP and SOIL_CARBON entries for
#                                  calculation of secondary emissions from
#                                  soil, lakes, and vegetation.
#EOP
#------------------------------------------------------------------------------
#BOC
###############################################################################
### BEGIN SECTION SETTINGS
###############################################################################

ROOT:                        {ROOT}
Logfile:                     HEMCO.log
DiagnPrefix:                 HEMCO_diagnostics
DiagnFreq:                   End
Wildcard:                    *
Separator:                   /
Unit tolerance:              2
Negative values:             0
Only unitless scale factors: false
Verbose:                     {VERBOSE}
Warnings:                    {WARNINGS}

### END SECTION SETTINGS ###

###############################################################################
### BEGIN SECTION EXTENSION SWITCHES
###############################################################################
###
### This section lists all emission extensions available to HEMCO and whether 
### they shall be used or not. Extension 'base' must have extension number 
### zero, all other extension numbers can be freely chosen. Data fields in 
### section 'base emissions' will only be read if the corresponding extension 
### (identified by ExtNr) is enabled. Similarly, fields grouped into data 
### collections ('(((CollectionName', ')))CollectionName') are only considered
### if the corresponding data collection is enabled in this section. Data
### listed within a disabled extension are always ignored, even if they are
### grouped in an enabled collection (e.g. GFED-4 data will never be considered
### if the GFED extension is disabled, even if the GFED4 option is set to true).
###
### It is possible to define collections that are only evaluated if a
### collection name is *not* enabled. This is achieved by leading the
### collection name with '.not.', e.g. '(((.not.FINN_daily' ...
### '))).not.FINN_daily' for FINN monthly data (only used if daily data is
### not being used). 
###
### The ExtNr provided in this section must match with the ExtNr assigned to
### the data listed in the base emissions sections. Otherwise, the listed files
### won't be read!
###############################################################################
# ExtNr ExtName           on/off  Species
0       Base              : on    *
#------------------------------------------------------------------------------
1002    GC_POPs           : on    POPG/POPPOCPO/POPPBCPO

### END SECTION EXTENSION SWITCHES ###

###############################################################################
### BEGIN SECTION BASE EMISSIONS 
###############################################################################

# ExtNr	Name sourceFile	sourceVar sourceTime C/R/E SrcDim SrcUnit Species ScalIDs Cat Hier

###############################################################################
### EXTENSION DATA (subsection of BASE EMISSIONS SECTION)
###
### These fields are needed by the extensions listed above. The assigned ExtNr 
### must match the ExtNr entry in section 'Extension switches'. These fields 
### are only read if the extension is enabled.  The fields are imported by the
### extensions by field name.  The name given here must match the name used 
### in the extension's source code. 
###############################################################################

#==============================================================================
# --- GEOS-Chem POPs emissions (Extension 1002) ---
#==============================================================================
1002 TOT_POP     $ROOT/POPs/v2015-08/BaP_wildfredist.generic.1x1.nc PG_SRCE__POPG  2004/1/1/0         C xy  kg/m2/s * - 1 1
1002 SURF_POP    $ROOT/POPs/v2015-08/BaP_soil_conc.geos5.4x5.nc     IJ_AVG_S__POPG 2009/1/1/0         C xy  1       * - 1 1
1002 SOIL_CARBON $ROOT/POPs/v2015-08/GTMM_carbon.generic.1x1.nc     SOIL_CARBON    1985/1/1/0         C xy  1       * - 1 1
1002 GLOBAL_OC   $ROOT/POPs/v2015-08/OCPO.$MET.$RES.nc              OCPO           2005-2009/1-12/1/0 C xyz 1       * - 1 1
1002 GLOBAL_BC   $ROOT/POPs/v2015-08/BCPO.$MET.$RES.nc              BCPO           2005-2009/1-12/1/0 C xyz 1       * - 1 1


###############################################################################
### NON-EMISSIONS DATA (subsection of BASE EMISSIONS SECTION)
###
### Non-emissions data. The following fields are read through HEMCO but do 
### not contain emissions data. The extension number is set to wildcard 
### character denoting that these fields will not be considered for emission 
### calculation. A given entry is only read if the assigned species name is 
### an HEMCO species.
###############################################################################

#==============================================================================
# --- Time zones (offset to UTC) ---
#==============================================================================
* TIMEZONES $ROOT/TIMEZONES/v2015-02/timezones_1x1.nc UTC_OFFSET 2000/1/1/0 C xy count * - 1 1

#==============================================================================
# --- Oxidant fields (O3, OH) --
#==============================================================================
* GLOBAL_O3  $ROOT/O3/v2014-09/MERGE.O3.geos5.72L.2x25.nc                 O3 1985/1-12/1/0 C xyz v/v   * - 1 1
* GLOBAL_OH  $ROOT/OH/v2014-09/v7-02-03.GMI/OH_3Dglobal.geos5.72L.2x25.nc OH 1985/1-12/1/0 C xyz kg/m3 * - 1 1

### END SECTION BASE EMISSIONS ###

###############################################################################
### BEGIN SECTION SCALE FACTORS 
###############################################################################

# ScalID Name sourceFile sourceVar sourceTime C/R/E SrcDim SrcUnit Oper

### END SECTION SCALE FACTORS ###

###############################################################################
### BEGIN SECTION MASKS 
###############################################################################

# ScalID Name sourceFile sourceVar sourceTime C/R/E SrcDim SrcUnit Oper Lon1/Lat1/Lon2/Lat2

### END SECTION MASKS ###
 
### END OF HEMCO INPUT FILE ###
#EOC
