#------------------------------------------------------------------------------
#                  Harvard-NASA Emissions Component (HEMCO)                   !
#------------------------------------------------------------------------------
#BOP
#
# !MODULE: HEMCO_Config.rc
#
# !DESCRIPTION: Contains configuration information for HEMCO. Define the
#  emissions inventories and corresponding file paths here. Entire 
#  configuration files can be inserted into this configuration file with
#  an '>>>include' statement, e.g. '>>>include HEMCO\_Config\_test.rc' 
#  The settings of include-files will be ignored.
#\\
#\\
# !REMARKS:
#  The following tokens will be replaced:
#  (1) ROOT    : Filepath to HEMCO root directory
#  (2) CFDIR   : Filepath to directory of this configuration file. 
#  (3) MET     : Met field type (from G-C compilation command)
#  (4) GRID    : Horizontal grid type (from G-C compilation command)
#  (5) SIM     : Simulation type (from G-C compilation command)
#  (6) NEST    : Nested-grid type (CH, EU, NA, SE)
#  (7) LNOX    : String for OTD/LIS lightning NOx files:
#                (a) For GEOS-5 this is either "geos5.1.0" or "geos5.2.0".  
#                (b) For other met fields, this is the same as MET.
#  (8) LEVRED  : String w/ the # of levels in the reduced GEOS-Chem grid
#                as used in some filenames (e.g. "23L", "30L", "47L")
#  (9) LEVFULL : String w/ the # of levels in the full GEOS-Chem grid
#                as used in some filenames (e.g. "55L", "72L")
# 
# !REMARKS:
#  Customized for the CO2 specialty simulation.
#
# !REVISION HISTORY: 
#  17 Apr 2014 - C. Keller   - Initial version
#  07 Oct 2014 - R. Yantosca - Now use HEMCO tokens $ROOT, $MET, $RES
#  20 Oct 2014 - R. Yantosca - Now read GFED3 data from GFED3/v2014-10
#  01 Dec 2014 - R. Yantosca - Bug fix: only specify one type of aviation
#  16 Feb 2015 - C. Keller   - (a) Added data 'collections' (brackets).
#                              (b) Moved section extension switches at the
#                                  beginning.
#                              (c) Removed section extension data. These fields
#                                  are now listed in section base emissions.
#                              (d) Fields can now cover multiple categories.
#  11 Mar 2015 - C. Keller   - Added 'negative' bracket, e.g. data within a
#                              bracket leading by '--' is only considered if 
#                              this collection name is disabled.
#  12 Mar 2015 - M. Sulprizio- Add MIX Asian anthropogenic emissions
#  13 Mar 2015 - C. Keller   - Added option to include other configuration 
#                              files by listing them as '>>>include CF_Name'.
#                              Added token '$CFDIR'. 
#  16 Mar 2015 - M. Sulprizio- Add mask file for MIX Asia region
#  16 Mar 2015 - M. Sulprizio- Add GFED4 entries from Christoph Keller
#  27 Mar 2015 - C. Keller   - Warnings are now 0-3
#  08 Apr 2015 - R. Nassar   - Multiple new emission fields, scale factors and
#                              references for v10-01 release
#EOP
#------------------------------------------------------------------------------
#BOC
###############################################################################
### BEGIN SECTION SETTINGS
###############################################################################
#
ROOT:                        {ROOT}
Logfile:                     HEMCO.log
DiagnPrefix:                 HEMCO_diagnostics
Wildcard:                    *
Separator:                   /
Unit tolerance:              1
Negative values:             2
Only unitless scale factors: false
Verbose:                     3
Warnings:                    3
#
END SECTION SETTINGS 

###############################################################################
### BEGIN SECTION EXTENSION SWITCHES
###############################################################################
###
### This section lists all emission extensions available to HEMCO and whether 
### they shall be used or not. Extension 'base' must have extension number 
### zero, all other extension numbers can be freely chosen. Data fields in 
### section 'base emissions' will only be read if the corresponding extension 
### (identified by ExtNr) is enabled. Similarly, fields grouped into data 
### collections ('(((CollectionName', ')))CollectionName') are only considered
### if the corresponding data collection is enabled in this section. Data
### listed within a disabled extension are always ignored, even if they are
### grouped in an enabled collection (e.g. GFED-4 data will never be considered
### if the GFED extension is disabled, even if the GFED4 option is set to true).
###
### It is possible to define collections that are only evaluated if a
### collection name is *not* enabled. This is achieved by leading the
### collection name with '.not.', e.g. '(((.not.FINN_daily' ...
### '))).not.FINN_daily' for FINN monthly data (only used if daily data is
### not being used). 
###
### The ExtNr provided in this section must match with the ExtNr assigned to
### the data listed in the base emissions sections. Otherwise, the listed files
### won't be read!
###############################################################################
# ExtNr ExtName           on/off  Species
0       Base              : on    *
    --> FOSSIL_ODIAC      :       true
    --> FOSSIL_CDIAC      :       false
    --> MIX               :       false
    --> OCEAN_EXCH_TAKA09 :       false
    --> OCEAN_EXCH_SCALED :       true
    --> BBIO_DIURNAL      :       false
    --> BBIO_SIB3         :       true
    --> BIOFUEL           :       true
    --> NET_TERR_EXCH     :       true
    --> SHIP              :       true
    --> AVIATION          :       true
    --> CO2CORR           :       true
    --> COPROD            :       true
# ----------------------------------------------------------------------------
111     GFED              : on    CO2bb
    --> GFED3             :       false
    --> GFED4             :       true
    --> GFED_daily        :       true
    --> GFED_3hourly      :       false
    --> CO scale factor   :       1.05
    --> POA scale factor  :       1.27
    --> NAP scale factor  :       2.75e-4
    --> hydrophilic BC    :       0.2
    --> hydrophilic OC    :       0.5
114     FINN              : off   CO2bb
    --> FINN_daily        :       true
    --> CO scale factor   :       1.0
    --> hydrophilic BC    :       0.2
    --> hydrophilic OC    :       0.5

END SECTION EXTENSION SWITCHES 

###############################################################################
### BEGIN SECTION BASE EMISSIONS 
###############################################################################

# ExtNr	Name sourceFile	sourceVar sourceTime C/R/E SrcDim SrcUnit Species ScalIDs Cat Hier

#==============================================================================
# --- FOSSIL FUEL EMISSIONS ---
#
# National CO2 fossil fuel emissions exclude international shipping and aviation
# Carbon Dioxide Information Analysis Center (CDIAC) 1x1 national emissions
# (Andres et al., 2011)
# Open-source Data Inventory of Anthropogenic CO2 (ODIAC) 1x1 national emissions
# (Oda & Maksyutov, 2011)
#
# ---> Recommended option: ODIAC (set FOSSIL_ODIAC = true)
#==============================================================================
(((FOSSIL_CDIAC
0 FOSSILCO2_MONTHLY $ROOT/CO2/v2014-09/FOSSIL/CDIAC_v2014.monthly.generic.1x1.nc CO2 1980-2014/1-12/1/0 C xy kg/m2/s CO2ff 40/41/80 1 1
)))FOSSIL_CDIAC

(((FOSSIL_ODIAC
0 FOSSILCO2_MONTHLY $ROOT/CO2/v2015-04/FOSSIL/ODIAC_CO2.monthly.generic.1x1.nc   CO2 2000-2014/1-12/1/0 C xy kg/m2/s CO2ff 40/41/80 1 2
)))FOSSIL_ODIAC

#==============================================================================
# --- MIX v1.1 (Asia) ---
#==============================================================================
(((MIX
0 MIX_CO2_IND $ROOT/MIX/v2015-03/MIX_Asia_CO2.generic.025x025.nc CO2_INDUSTRY    2008-2010/1-12/1/0 C xy kg/m2/s CO2ff 1006 1 45
0 MIX_CO2_POW $ROOT/MIX/v2015-03/MIX_Asia_CO2.generic.025x025.nc CO2_POWER       2008-2010/1-12/1/0 C xy kg/m2/s CO2ff 1006 1 45
0 MIX_CO2_RES $ROOT/MIX/v2015-03/MIX_Asia_CO2.generic.025x025.nc CO2_RESIDENTIAL 2008-2010/1-12/1/0 C xy kg/m2/s CO2ff 1006 1 45
0 MIX_CO2_TRA $ROOT/MIX/v2015-03/MIX_Asia_CO2.generic.025x025.nc CO2_TRANSPORT   2008-2010/1-12/1/0 C xy kg/m2/s CO2ff 1006 1 45
)))MIX

#==============================================================================
# --- OCEAN EXCHANGE EMISSIONS ---
#
# Ocean uptake/emission from Takahashi et al. (2009) and earlier works.
# Climatological exchange for 2000 (-1.4 PgC/yr) or scaled ocean exchange, which
# accounts for changing atmospheric CO2 (as in the paper) are now available.
#
# ---> Recommended option: scaled ocean exchange (set OCEAN_EXCH_SCALED = true)
#==============================================================================
(((OCEAN_EXCH_TAKA09
0 OCEANCO2_TAKA_ANNUAL  $ROOT/CO2/v2014-09/OCEAN/Taka2009_CO2_Annual.nc        CO2 2000/1/1/0         C xy kg/m2/s CO2oc - 1 1
0 OCEANCO2_TAKA_MONTHLY $ROOT/CO2/v2014-09/OCEAN/Taka2009_CO2_Monthly.nc       CO2 2000/1-12/1/0      C xy kg/m2/s CO2oc - 1 2
)))OCEAN_EXCH_TAKA09

(((OCEAN_EXCH_SCALED
0 OCEANCO2_SCALED_MONTHLY $ROOT/CO2/v2015-04/OCEAN/Scaled_Ocean_CO2_monthly.nc CO2 2000-2013/1-12/1/0 C xy kg/m2/s CO2oc - 1 3
)))OCEAN_EXCH_SCALED

#==============================================================================
# --- BALANCED BIOSPHERE EXCHANGE ---
#
# These emissions have a seasonal cycle of uptake/emission but have a net 
# annual uptake of close to zero (balanced).
# CASA model daily emissions for a single year at coarse resolution have a 
# diurnal cycle imposed (Olsen & Randerson, 2004)
# SiB3 emissions are from Nick Parazoo (Messerschmidt et al., 2011) for
# 2006-2010.
#
# ---> Recommended option: SiB3 (set BBIO_SIB3 = true)
#==============================================================================
(((BBIO_DIURNAL
0 BBIOCO2_DIURNAL $ROOT/CO2/v2014-09/BBIO/BBIO_diurnal_CO2.nc CO2 1985/1-12/1-31/0-23 C xy kg/m2/s CO2bal - 1 1
)))BBIO_DIURNAL

(((BBIO_SIB3
0 SIB_BBIO_CO2 $ROOT/CO2/v2015-04/BIO/SiB3_3hr_NEP.nc CO2 2006-2010/1-12/1-31/0-23 C xy kg/m2/s CO2bal - 1 1
)))BBIO_SIB3

#==============================================================================
# --- BIOFUEL EMISSIONS ---
# 
# From Yevich and Logan (2001)
#==============================================================================
(((BIOFUEL
0 BIOFUEL_CO2 $ROOT/CO2/v2015-04/biofuel_CO2.geos.1x1-1995.nc CO2 1995/1/1/0 C xy kg/m2/s CO2bf - 1 1
)))BIOFUEL

#==============================================================================
# --- NET TERRESTRIAL EXCHANGE ---
#
# TransCom annual net/residual terrestrial biosperhic CO2 (Baker et al., 2006)
#
# ---> Recommended for use in forward modelling, optional for
#      inversion/assimilation
#==============================================================================
(((NET_TERR_EXCH
0 CO2_NET_TERRESTRIAL $ROOT/CO2/v2015-04/BIO/Net_terrestrial_exch_5.29Pg.generic.1x1.nc CO2 2000/1/1/0 C xy kg/m2/s CO2nte - 1 1
)))NET_TERR_EXCH

#==============================================================================
# --- ICOADS SHIP EMISSIONS ---
#
# The spatial distribution is scaled with global annual scale factors #50
#==============================================================================
(((SHIP
0 CO2_SHIP_ICOADS  $ROOT/ICOADS_SHIP/v2014-07/ICOADS_ship_CO2_2004.generic.1x1.nc CO2 2004/1-12/1/0 C xy kg/m2/s CO2se 50 1 1
)))SHIP

#==============================================================================
# --- AVIATION EMISSIONS ---
#
# Aviation fuel burn spatial and seaonal distribution from AEIC (Simone et al. 
# 2013) scaled with global annual CO2 emission totals calculated from the IEA
# (Olsen et al., 2013)
#==============================================================================
(((AVIATION
0 AEIC_CO2  $ROOT/AEIC/v2015-01/AEIC.47L.gen.1x1.nc FUELBURN 2005/1-12/1/0 C xyz kg/m2/s CO2av 60/70 1 1 
)))AVIATION

#==============================================================================
# --- CHEMICAL PRODUCTION FROM CO OXIDATION ---
#
# ---> Recommended for use in forward modelling, optional for
#      inversion/assimilation
#==============================================================================
(((COPROD
0 CO2_COPROD $ROOT/CO2/v2015-04/CHEM/CO2_prod_rates.GEOS5.2x25.47L.nc LCO 2004-2009/1-12/1/0 C xyz kg/m3/s CO2ch - 1 1
)))COPROD

#==============================================================================
# --- CO2 SURFACE CORRECTION FOR CO OXIDATION ---
#
# These emissions will be subtracted!
# Fossil fuel CO and CH4 are based on the national distribution scaled with #10.
# Biogenic CH4 data is converted to CO2 using scale factor #20.
# Isoprene and monoterpene are converted from kgC to kgCO2 by scale factor #21.
# Approach is described in Nassar et al. (2010)
#
# ---> Recommended for use if chemical production (above) is turned on
===============================================================================
(((CO2CORR
0 FOSSILCO2_MONTHLY $ROOT/CO2/v2015-04/FOSSIL/ODIAC_CO2.monthly.generic.1x1.nc CO2     2000-2014/1-12/1/0 E xy kg/m2/s CO2corr 10/40/41/80 1 1

0 CO2CORR_LIVESTOCK $ROOT/CO2/v2015-04/CHEM/CH4_source.geos.2x25.nc            CH4_004 2004/1-12/1/0      C xy kg/m2/s CO2corr 20          2 1
0 CO2CORR_WASTE     $ROOT/CO2/v2015-04/CHEM/CH4_source.geos.2x25.nc            CH4_005 2004/1-12/1/0      C xy kg/m2/s CO2corr 20          2 1
0 CO2CORR_RICE      $ROOT/CO2/v2015-04/CHEM/CH4_source.geos.2x25.nc            CH4_007 2004/1-12/1/0      C xy kg/m2/s CO2corr 20          2 1
0 CO2CORR_WETLANDS  $ROOT/CO2/v2015-04/CHEM/CH4_source.geos.2x25.nc            CH4_010 2004/1-12/1/0      C xy kg/m2/s CO2corr 20          2 1
0 CO2CORR_NATURAL   $ROOT/CO2/v2015-04/CHEM/CH4_source.geos.2x25.nc            CH4_012 2004/1-12/1/0      C xy kg/m2/s CO2corr 20          2 1
0 CO2CORR_ISOPRENE  $ROOT/CO2/v2015-04/CHEM/Isoprene-2004.geos.2x25.nc         ISOP    2004/1-12/1/0      C xy kg/m2/s CO2corr 21/30       3 1
0 CO2CORR_MONOTERP  $ROOT/CO2/v2015-04/CHEM/Monoterpene-2004.geos.2x25.nc      MONOT   2004/1-12/1/0      C xy kg/m2/s CO2corr 21/30       3 1
)))CO2CORR

###############################################################################
### EXTENSION DATA (subsection of BASE EMISSIONS SECTION)
###
### These fields are needed by the extensions listed above. The assigned ExtNr 
### must match the ExtNr entry in section 'Extension switches'. These fields 
### are only read if the extension is enabled.  The fields are imported by the
### extensions by field name.  The name given here must match the name used 
### in the extension's source code. 
###############################################################################

#==============================================================================
# --- GFED biomass burning emissions (Extension 111) 
# NOTE: These are the base emissions in kgDM/m2/s.
#==============================================================================
111 GFED_HUMTROP    $ROOT/GFED3/v2014-10/GFED3_humtropmap.nc              humtrop           2000/1/1/0             C xy 1         * - 1 1

(((GFED3   
111 GFED_WDL        $ROOT/GFED3/v2014-10/GFED3_gen.1x1.$YYYY.nc           GFED3_BB__WDL_DM  1997-2011/1-12/01/0    C xy kgDM/m2/s * - 1 1
111 GFED_AGW        $ROOT/GFED3/v2014-10/GFED3_gen.1x1.$YYYY.nc           GFED3_BB__AGW_DM  1997-2011/1-12/01/0    C xy kgDM/m2/s * - 1 1
111 GFED_DEF        $ROOT/GFED3/v2014-10/GFED3_gen.1x1.$YYYY.nc           GFED3_BB__DEF_DM  1997-2011/1-12/01/0    C xy kgDM/m2/s * - 1 1
111 GFED_FOR        $ROOT/GFED3/v2014-10/GFED3_gen.1x1.$YYYY.nc           GFED3_BB__FOR_DM  1997-2011/1-12/01/0    C xy kgDM/m2/s * - 1 1
111 GFED_PET        $ROOT/GFED3/v2014-10/GFED3_gen.1x1.$YYYY.nc           GFED3_BB__PET_DM  1997-2011/1-12/01/0    C xy kgDM/m2/s * - 1 1
111 GFED_SAV        $ROOT/GFED3/v2014-10/GFED3_gen.1x1.$YYYY.nc           GFED3_BB__SAV_DM  1997-2011/1-12/01/0    C xy kgDM/m2/s * - 1 1
)))GFED3  

(((GFED4
111 GFED_WDL        $ROOT/GFED4/v2015-03/GFED4_gen.025x025.$YYYY.nc       WDL_DM            2000-2013/1-12/01/0    C xy kg/m2/s   * - 1 1
111 GFED_AGW        $ROOT/GFED4/v2015-03/GFED4_gen.025x025.$YYYY.nc       AGW_DM            2000-2013/1-12/01/0    C xy kg/m2/s   * - 1 1
111 GFED_DEF        $ROOT/GFED4/v2015-03/GFED4_gen.025x025.$YYYY.nc       DEF_DM            2000-2013/1-12/01/0    C xy kg/m2/s   * - 1 1
111 GFED_FOR        $ROOT/GFED4/v2015-03/GFED4_gen.025x025.$YYYY.nc       FOR_DM            2000-2013/1-12/01/0    C xy kg/m2/s   * - 1 1
111 GFED_PET        $ROOT/GFED4/v2015-03/GFED4_gen.025x025.$YYYY.nc       PET_DM            2000-2013/1-12/01/0    C xy kg/m2/s   * - 1 1
111 GFED_SAV        $ROOT/GFED4/v2015-03/GFED4_gen.025x025.$YYYY.nc       SAV_DM            2000-2013/1-12/01/0    C xy kg/m2/s   * - 1 1
)))GFED4

(((GFED_daily
111 GFED_FRAC_DAY   $ROOT/GFED3/v2014-10/GFED3_dailyfrac_gen.1x1.$YYYY.nc GFED3_BB__DAYFRAC 2002-2011/1-12/1-31/0  C xy 1         * - 1 1
)))GFED_daily

(((GFED_3hourly
111 GFED_FRAC_3HOUR $ROOT/GFED3/v2014-10/GFED3_3hrfrac_gen.1x1.$YYYY.nc   GFED3_BB__HRFRAC  2002-2011/1-12/01/0-23 C xy 1         * - 1 1
)))GFED_3hourly

#==============================================================================
# --- FINN biomass burning emissions (Extension 114) 
#==============================================================================
(((.not.FINN_daily
114 FINN_VEGTYP1       $ROOT/FINN/v2014-07/FINN_monthly_05x05.nc fire_vegtype1 2007-2013/1-12/1/0    C xy kg/m2/s * - 1 1
114 FINN_VEGTYP2       $ROOT/FINN/v2014-07/FINN_monthly_05x05.nc fire_vegtype2 2007-2013/1-12/1/0    C xy kg/m2/s * - 1 1
114 FINN_VEGTYP3       $ROOT/FINN/v2014-07/FINN_monthly_05x05.nc fire_vegtype3 2007-2013/1-12/1/0    C xy kg/m2/s * - 1 1
114 FINN_VEGTYP4       $ROOT/FINN/v2014-07/FINN_monthly_05x05.nc fire_vegtype4 2007-2013/1-12/1/0    C xy kg/m2/s * - 1 1
114 FINN_VEGTYP5       $ROOT/FINN/v2014-07/FINN_monthly_05x05.nc fire_vegtype5 2007-2013/1-12/1/0    C xy kg/m2/s * - 1 1
114 FINN_VEGTYP9       $ROOT/FINN/v2014-07/FINN_monthly_05x05.nc fire_vegtype9 2007-2013/1-12/1/0    C xy kg/m2/s * - 1 1
))).not.FINN_daily

(((FINN_daily
114 FINN_DAILY_VEGTYP1 $ROOT/FINN/v2014-07/FINN_daily_05x05.nc   fire_vegtype1 2007-2013/1-12/1-31/0 C xy kg/m2/s * - 1 1
114 FINN_DAILY_VEGTYP2 $ROOT/FINN/v2014-07/FINN_daily_05x05.nc   fire_vegtype2 2007-2013/1-12/1-31/0 C xy kg/m2/s * - 1 1
114 FINN_DAILY_VEGTYP3 $ROOT/FINN/v2014-07/FINN_daily_05x05.nc   fire_vegtype3 2007-2013/1-12/1-31/0 C xy kg/m2/s * - 1 1
114 FINN_DAILY_VEGTYP4 $ROOT/FINN/v2014-07/FINN_daily_05x05.nc   fire_vegtype4 2007-2013/1-12/1-31/0 C xy kg/m2/s * - 1 1
114 FINN_DAILY_VEGTYP5 $ROOT/FINN/v2014-07/FINN_daily_05x05.nc   fire_vegtype5 2007-2013/1-12/1-31/0 C xy kg/m2/s * - 1 1
114 FINN_DAILY_VEGTYP9 $ROOT/FINN/v2014-07/FINN_daily_05x05.nc   fire_vegtype9 2007-2013/1-12/1-31/0 C xy kg/m2/s * - 1 1
)))FINN_daily

###############################################################################
### NON-EMISSIONS DATA (subsection of BASE EMISSIONS SECTION)
###
### Non-emissions data. The following fields are read through HEMCO but do 
### not contain emissions data. The extension number is set to wildcard 
### character denoting that these fields will not be considered for emission 
### calculation. A given entry is only read if the assigned species name is 
### an HEMCO species.
###############################################################################

#==============================================================================
# --- Time zones (offset to UTC) ---
#==============================================================================
* TIMEZONES $ROOT/TIMEZONES/v2015-02/timezones_1x1.nc UTC_OFFSET 2000/1/1/0 C xy count * - 1 1

END SECTION BASE EMISSIONS 

###############################################################################
### BEGIN SECTION SCALE FACTORS 
###############################################################################

# ScalID Name sourceFile sourceVar sourceTime C/R/E SrcDim SrcUnit Oper

#==============================================================================
# --- FOSSIL FUEL CO2 SURFACE CORRECTION FACTOR ---
#
# Fossil fuel CO2 emissions must be scaled down to avoid counting emissions 
# already accounted for by CO and CH4 oxidation to CO2.
#
# The necssary annual reduction in emissions related to fossil fuels is 
# determined as:  global C mass from FF (CO+CH4) / global C mass from FF CO2
#
# Note: GEOS-Chem v8-03-02 to v9-02, assumed: 0.0489 for all years but that  
# value seems to correspond to mid-1980s fossil fuel combustion since CO
# emissions have held constant (Granier et al., 2011) while CO2 has risen.
# 
#==============================================================================
#10 CO2_FOSSFUEL_CORR 0.0489 - - - xy 1 1

#10 CO2_FOSSFUEL_CORR 0.052815/0.054486/0.054902/0.055107/0.053166/0.051611/0.050065/0.048803/0.047060/0.046041 - 1980-1989/1/1/0 C xy 1 1
#10 CO2_FOSSFUEL_CORR 0.045816/0.045153/0.045541/0.045556/0.044800/0.043875/0.042910/0.042206/0.042257/0.042468- 1990-1999/1/1/0 C xy 1 1
10 CO2_FOSSFUEL_CORR 0.041495/0.040525/0.040125/0.037853/0.035957/0.034686/0.033538/0.032771/0.031961/0.032118 - 2000-2009/1/1/0 C xy 1 1
#10 CO2_FOSSFUEL_CORR 0.030622/0.029674/0.029029/0.028355                                                       - 2010-2013/1/1/0 C xy 1 1

#==============================================================================
# --- CO2 CONVERSION FACTORS ---
#==============================================================================
20 CH4TOCO2  2.75   - - - xy 1 1
21 CTOCO2    3.6667 - - - xy 1 1
30 NMHCSCALE 0.3333 - - - xy 1 1

#==============================================================================
# ---- TIMES diurnal and weekly scale factors for national fossil fuel CO2 ---
#
# These temporal scale factors are described in Nassar et al. (2013) 
#==============================================================================
40 CO2_DIURNAL $ROOT/CO2/v2015-04/FOSSIL/TIMES_diurnal_scale_factors.nc diurnal_scale_factors 2006/1/1/1-24 C xy 1 1
41 CO2_WEEKLY  $ROOT/CO2/v2015-04/FOSSIL/TIMES_weekly_scale_factors.nc  weekly_scale_factors  2006/1/WD/0 C xy 1 1

#==============================================================================
# --- SHIP ANNUAL SCALE FACTOR ---
#
# Based on a linear fit of 1985-2002 values from Endresen et al. (2007).
#==============================================================================
50 CO2_SHIP_SCALE 1.043/1.068/1.094/1.128/1.154/1.180/1.205/1.231/1.265/1.291/1.316/1.342/1.368/1.393/1.427/1.453/1.479/1.504/1.530/1.556/1.590/1.615/1.641/1.667/1.641 - 1985-2009/1/1/0 C xy 1 1

#==============================================================================
# --- AVIATION FUEL BURN SCALE FACTOR ( kg C / kg fuel ) ---
#==============================================================================
60 AEIC_CO2 3.155 - - - xy unitless 1

#==============================================================================
# --- AVIATION GLOBAL ANNUAL EMISSION SCALE FACTOR ---
#
# AEIC global annual emissions 0.15574 TgC for 2005
# IEA values from Olsen et al. (2013) to scale 1990-2008 
#==============================================================================
70 CO2_AVIATION_SCALE 0.9034/0.8867/0.8923/0.9034/0.9759/1.0038/1.0596/1.0875/1.1154/1.1544/1.1990/1.1711/1.1711/1.1711/1.2492/1.3105/1.3273/1.3496/1.3440 - 1990-2008/1/1/0 C xy 1 1

#==============================================================================
# --- DOMESTIC AVIATION SURFACE CORRECTION FACTOR ---
#
# Regional scale factors slightly less than 1 remove surface contribution from 
# domestic aviation in national fossil fuel emisisons, which should instead be 
# counted in the air as a 3D field. This scale factor should be applied to the
# main/national fossil fuel emission field if using avaition emissions.
#==============================================================================
80 AVIATION_SURF_CORR $ROOT/CO2/v2015-04/FOSSIL/Aviation_SurfCorr_SclFac.1x1.nc CO2 2004/1/1/0 C xy 1 1

END SECTION SCALE FACTORS 

###############################################################################
### BEGIN SECTION MASKS 
###############################################################################

# ScalID Name sourceFile sourceVar sourceTime C/R/E SrcDim SrcUnit Oper Lon1/Lat1/Lon2/Lat2

#==============================================================================
# Country/region masks
#==============================================================================
1000 EMEP_MASK   $ROOT/MASKS/v2014-07/EMEP_mask.geos.1x1.nc            MASK 2000/1/1/0 C xy unitless 1 -30/30/45/70
1001 MEXICO_MASK $ROOT/MASKS/v2014-07/BRAVO.MexicoMask.generic.1x1.nc  MASK 2000/1/1/0 C xy unitless 1 -118/17/-95/33
1002 CANADA_MASK $ROOT/MASKS/v2014-07/Canada_mask.geos.1x1.nc          MASK 2000/1/1/0 C xy unitless 1 -141/40/-52/85
1003 SEASIA_MASK $ROOT/MASKS/v2014-07/SE_Asia_mask.generic.1x1.nc      MASK 2000/1/1/0 C xy unitless 1  60/-12/153/55
1004 NA_MASK     $ROOT/MASKS/v2014-07/NA_mask.geos.1x1.nc              MASK 2000/1/1/0 C xy unitless 1 -165/10/-40/90
1005 USA_MASK    $ROOT/MASKS/v2014-07/usa.mask.nei2005.geos.1x1.nc     MASK 2000/1/1/0 C xy unitless 1 -165/10/-40/90
1006 ASIA_MASK   $ROOT/MASKS/v2014-07/MIX_Asia_mask.generic.025x025.nc MASK 2000/1/1/0 C xy unitless 1 46/-12/180/82

END SECTION MASKS 
 
###############################################################################
### REFERNCES
###############################################################################
#
# Andres. R.J., J.S Gregg, L. Losey, G. Marland, T.A. Boden (2011), Montly,
# global emissions of carbon dioxide from fossil fuel consumption, Tellus 63B,
# 309-327.
#
# Baker, D.F. et al. (2006) TransCom3 inversion intercomparison: Impact of 
# transport model errors on the interannual variability of regional CO2 fluxes, 
# 1998-2003, Global Biogeochem., Cy., 20, GB1002, doi:10.29/2004GB002439.
#
# Endresen, O. et al. (2007), A historical reconstuctino of ships fuel
# consuption and emissions, J. Geophys. Res., 112, D12301,
# doi:10.1029/2006JD007630.
#
# Granier, C. et al. (2011), Evolution of anthropogenic and biomass burning
# emissions of air pollutants at global and regional scales during the 1980-2010
# period, Climatic Change, 109:163-190, doi:10.1007/s10584-011-0154-1.
#
# Keller, C.A., M.S. Long, R.M. Yantosca, A.M. DaSilva, S. Pawson, D.J. Jacob 
# (2014), HEMCO v1.0: a versatile, ESMF-compliant component for calculating 
# emissions in atmospheric models, Geosci., Model Dev., 7, 1409?1417,
# doi:10.5194/gmd-7-1409-2014.
#
# Messerschmidt, J., N. Parazoo, N.M. Deutscher, C. Roehl, T. Warneke, P.O. 
# Wennberg, and D. Wunch (2012) Evaluation of atmosphere-biosphere exchange 
# estimations with TCCON measurements, Atmos. Chem. Phys. Discussions, 12, 
# 12759-12800, doi:10.5194/acpd-12-12759-2012. 
#
# Nassar, R., D.B.A. Jones, P. Suntharalingam, J.M. Chen, R.J. Andres, K.J. 
# Wecht, R.M. Yantosca, S.S. Kulawik, K.W. Bowman, J.R. Worden, T. Machida and
# H. Matsueda (2010), Modeling global atmospheric CO2 with improved emission 
# inventories and CO2 production from the oxidation of other carbon species, 
# Geoscientific Model Development, 3, 689-716.
#
# Nassar, R., L. Napier-Linton, K.R. Gurney, R.J. Andres, T. Oda, F.R. Vogel, 
# F. Deng (2013), Improving the temporal and spatial distribution of CO2 
# emissions from global fossil fuel emission datasets, Journal of Geophysical 
# Research: Atmospheres, 118, 917-933, doi:10.1029/2012JD018196.
#
# Oda, T. and S. Maksyutov (2011), A very high-resolution (1 km x 1 km) global 
# fossil fuel CO2 emission inventory derived using a point source database and 
# satellite observations of nighttime lights, Atmos. Chem. Phys., 11, 543?556, 
# doi:10.5194/acp-11-543-2011.
#
# Olsen, S.C. and J.T. Randerson (2004), Differences between surface and column
# atmospheric CO2 and implications for carbon cycle research, J. Geophys. Res.
# 109, D02301, doi:10.1029/2003JD003968.
#
# Olsen, S.C., D.J. Weubbles, B. Owen (2013) Comparison of global 3-D aviation 
# datasets, Atmos. Chem. Phys., 13, 429?441, doi:10.5194/acp-13-429-2013.
#
# Simone, N., M. Stettler, S. Eastham, S. Barrett, Aviation Emissions Inventory
# Code (AEIC ) User Manual (R1), Laboratory for Aviation and the Environment, 
# Massachusetts Institute of Technology, January 2013, Report No:
# LAE-2013-001-N,
# www.LAE.MIT.edu.
#
# Takahashi, T., et al. (2009), Climatological mean and decadal change in 
# surface ocean pCO2, and net sea-air CO2 flux over the global oceans, Deep-Sea 
# Res. II, 56(8?10), 554?577, doi:10.1016/j.dsr2.2008.12.009.
#
### END OF HEMCO INPUT FILE ###
#EOC
