##############################################################################
#####  Sample HISTORY.rc for unit testing new netCDF diagnostics         #####
#####  in GEOS-Chem "Classic" simulations.  This will schedule only      #####
#####  the advected species. (bmy, 8/2/17)                               #####
#####                                                                    #####
#####  NOTE: For the TOMAS aerosol microphysics simulations, we use an   #####
#####  update interval (e.g. "inst.frequency") of 30 minutes for unit    #####
#####  tests.  This corresponds to the dynamic timestep setting.  You    #####
#####  can, of course, change this setting for your runs. (bmy, 9/29/17) #####
##############################################################################

# These tags are only used for GCHP
EXPID:  OutputDir/GCHP
EXPDSC: GEOS-Chem_devel
CoresPerNode: 6


COLLECTIONS: 'inst',
             ::
  inst.filename:      './GEOSChem.inst.%y4%m2%d2.nc4',
  inst.frequency:      003000,
  inst.duration:       240000,
  inst.mode:          'instantaneous',
  inst.fields:        'SpeciesConc__ADV?', 'GIGCchem'
                       ::

