#------------------------------------------------------------------------------
#                  Harvard-NASA Emissions Component (HEMCO)                   !
#------------------------------------------------------------------------------
#BOP
#
# !MODULE: HEMCO_Config.rc
#
# !DESCRIPTION: Contains configuration information for HEMCO. Define the
#  emissions inventories and corresponding file paths here. Entire 
#  configuration files can be inserted into this configuration file with
#  an '>>>include' statement, e.g. '>>>include HEMCO\_Config\_test.rc' 
#  The settings of include-files will be ignored.
#\\
#\\
# !REMARKS:
#  Customized for the Rn-Pb-Be simulation. 
#
#  The following tokens will be replaced:
#  (1) ROOT    : Filepath to HEMCO root directory
#  (2) CFDIR   : Filepath to directory of this configuration file. 
#  (3) MET     : Met field type (from G-C compilation command)
#  (4) GRID    : Horizontal grid type (from G-C compilation command)
#  (5) SIM     : Simulation type (from G-C compilation command)
#  (6) NEST    : Nested-grid type (CH, EU, NA, SE)
#  (7) LEVRED  : String w/ the # of levels in the reduced GEOS-Chem grid
#                as used in some filenames (e.g. "23L", "30L", "47L")
#  (8) LEVFULL : String w/ the # of levels in the full GEOS-Chem grid
#                as used in some filenames (e.g. "55L", "72L")
# 
# !REVISION HISTORY: 
#  Navigate to your unit tester directory and type 'gitk' at the prompt
#  to browse the revision history.
#EOP
#------------------------------------------------------------------------------
#BOC
###############################################################################
### BEGIN SECTION SETTINGS
###############################################################################

ROOT:                        {DATA_ROOT}/HEMCO
METDIR:                      {DATA_ROOT}/GEOS_{GRID_DIR}/{MET_DIR}
Logfile:                     HEMCO.log
DiagnFile:                   HEMCO_Diagn.rc
DiagnPrefix:                 HEMCO_diagnostics
DiagnFreq:                   End
Wildcard:                    *
Separator:                   /
Unit tolerance:              1
Negative values:             0
Only unitless scale factors: false
Verbose:                     {VERBOSE}
Warnings:                    {WARNINGS}

### END SECTION SETTINGS ### 

###############################################################################
### BEGIN SECTION EXTENSION SWITCHES
###############################################################################
###
### This section lists all emission extensions available to HEMCO and whether 
### they shall be used or not. Extension 'base' must have extension number 
### zero, all other extension numbers can be freely chosen. Data fields in 
### section 'base emissions' will only be read if the corresponding extension 
### (identified by ExtNr) is enabled. Similarly, fields grouped into data 
### collections ('(((CollectionName', ')))CollectionName') are only considered
### if the corresponding data collection is enabled in this section. Data
### listed within a disabled extension are always ignored, even if they are
### grouped in an enabled collection (e.g. GFED-4 data will never be considered
### if the GFED extension is disabled, even if the GFED4 option is set to true).
###
### It is possible to define collections that are only evaluated if a
### collection name is *not* enabled. This is achieved by leading the
### collection name with '.not.', e.g. '(((.not.FINN_daily' ...
### '))).not.FINN_daily' for FINN monthly data (only used if daily data is
### not being used). 
###
### The ExtNr provided in this section must match with the ExtNr assigned to
### the data listed in the base emissions sections. Otherwise, the listed files
### won't be read!
###############################################################################
# ExtNr ExtName           on/off  Species
0       Base              : on    *
    --> GC_RESTART        :       true
    --> EDGARv43          :       false
    --> HTAP              :       false
    --> CEDS              :       true
#------------------------------------------------------------------------------
100     GC_Rn-Pb-Be       : on    Rn222/Be7/Be7Strat/Be10/Be10Strat

### END SECTION EXTENSION SWITCHES ###

###############################################################################
### BEGIN SECTION BASE EMISSIONS 
###############################################################################

# ExtNr	Name sourceFile	sourceVar sourceTime C/R/E SrcDim SrcUnit Species ScalIDs Cat Hier

#==============================================================================
# SF6 emissions from EDGAR v4.2
#==============================================================================
0 EDGAR_SF6tracer  $ROOT/SF6/v2019-01/EDGAR_v42_SF6_IPCC_2.generic.01x01.nc emi_sf6 1970-2008/1-12/1/0 C xy kg/m2/s SF6tracer - 1 1

#==============================================================================
# CH3I emitted over the oceans at rate of 1 molec/cm2/s
#==============================================================================
0 SRC_2D_CH3Itracer 1.0 - - - xy molec/cm2/s CH3Itracer 1000 1 1

#==============================================================================
# Anthropogenic CO 25-day and 50-day tracers
#
# Choose EDGAR v4.3, HTAP, or CEDS
#==============================================================================
(((EDGARv43
0  EDGAR_COtrc25d_POW $ROOT/EDGARv43/v2016-11/EDGAR_v43.CO.POW.0.1x0.1.nc  emi_co  1970-2010/1/1/0 C xy kg/m2/s COtracer25days 1201/26/52 1/2 2
0  EDGAR_COtrc50d_POW -                                                    -       -               - -  -       COtracer50days 1201/26/52 1/2 2
0  EDGAR_COtrc25d_ENG $ROOT/EDGARv43/v2016-11/EDGAR_v43.CO.ENG.0.1x0.1.nc  emi_co  1970-2010/1/1/0 C xy kg/m2/s COtracer25days 1202/26/52 1/2 2
0  EDGAR_COtrc50d_ENG -                                                    -       -               - -  -       COtracer50days 1202/26/52 1/2 2
0  EDGAR_COtrc25d_IND $ROOT/EDGARv43/v2016-11/EDGAR_v43.CO.IND.0.1x0.1.nc  emi_co  1970-2010/1/1/0 C xy kg/m2/s COtracer25days 1203/26/52 1/2 2
0  EDGAR_COtrc50d_IND -                                                    -       -               - -  -       COtracer50days 1203/26/52 1/2 2
0  EDGAR_COtrc25d_TRO $ROOT/EDGARv43/v2016-11/EDGAR_v43.CO.TRO.0.1x0.1.nc  emi_co  1970-2010/1/1/0 C xy kg/m2/s COtracer25days 1204/26/52 1/2 2
0  EDGAR_COtrc50d_TRO -                                                    -       -               - -  -       COtracer50days 1204/26/52 1/2 2
0  EDGAR_COtrc25d_TNG $ROOT/EDGARv43/v2016-11/EDGAR_v43.CO.TNG.0.1x0.1.nc  emi_co  1970-2010/1/1/0 C xy kg/m2/s COtracer25days 1205/26/52 1/2 2
0  EDGAR_COtrc50d_TNG -                                                    -       -               - -  -       COtracer50days 1205/26/52 1/2 2
0  EDGAR_COtrc25d_RCO $ROOT/EDGARv43/v2016-11/EDGAR_v43.CO.RCO.0.1x0.1.nc  emi_co  1970-2010/1/1/0 C xy kg/m2/s COtracer25days 1206/26/52 1/2 2
0  EDGAR_COtrc50d_RCO -                                                    -       -               - -  -       COtracer50days 1206/26/52 1/2 2
0  EDGAR_COtrc25d_PPA $ROOT/EDGARv43/v2016-11/EDGAR_v43.CO.PPA.0.1x0.1.nc  emi_co  1970-2010/1/1/0 C xy kg/m2/s COtracer25days 1207/26/52 1/2 2
0  EDGAR_COtrc50d_PPA -                                                    -       -               - -  -       COtracer50days 1207/26/52 1/2 2
#0 EDGAR_COtrc25d_AWB $ROOT/EDGARv43/v2016-11/EDGAR_v43.CO.AWB.0.1x0.1.nc  emi_co  1970-2010/1/1/0 C xy kg/m2/s COtracer25days 1209/26/52 1/2 2
#0 EDGAR_COtrc50d_AWB -                                                    -       -               - -  -       COtracer50days 1209/26/52 1/2 2
0  EDGAR_COtrc25d_SWD $ROOT/EDGARv43/v2016-11/EDGAR_v43.CO.SWD.0.1x0.1.nc  emi_co  1970-2010/1/1/0 C xy kg/m2/s COtracer25days 1211/26/52 1/2 2
0  EDGAR_COtrc50d_SWD -                                                    -       -               - -  -       COtracer50days 1211/26/52 1/2 2
0  EDGAR_COtrc25d_FFF $ROOT/EDGARv43/v2016-11/EDGAR_v43.CO.FFF.0.1x0.1.nc  emi_co  1970-2010/1/1/0 C xy kg/m2/s COtracer25days 1212/26/52 1/2 2
0  EDGAR_COtrc50d_FFF -                                                    -       -               - -  -       COtracer50days 1211/26/52 1/2 2
)))EDGARv43

(((HTAP
0 HTAP_COtrc25d_IND   $ROOT/HTAP/v2015-03/CO/EDGAR_HTAP_CO_INDUSTRY.generic.01x01.nc      emi_co  2008-2010/1-12/1/0 C xy kg/m2/s COtracer25days 6/28/26 1/2 4
0 HTAP_COtrc50d_IND   -                                                                   -       -                  - -  -       COtracer50days 6/28/26 1/2 4
0 HTAP_COtrc25d_POW   $ROOT/HTAP/v2015-03/CO/EDGAR_HTAP_CO_ENERGY.generic.01x01.nc        emi_co  2008-2010/1-12/1/0 C xy kg/m2/s COtracer25days 6/28/26 1/2 4
0 HTAP_COtrc50d_POW   -                                                                   -       -                  - -  -       COtracer50days 6/28/26 1/2 4
0 HTAP_COtrc25d_RES   $ROOT/HTAP/v2015-03/CO/EDGAR_HTAP_CO_RESIDENTIAL.generic.01x01.nc   emi_co  2008-2010/1-12/1/0 C xy kg/m2/s COtracer25days 6/28/26 1/2 4
0 HTAP_COtrc50d_RES   -                                                                   -       -                  - -  -       COtracer50days 6/28/26 1/2 4
0 HTAP_COtrc25d_TRA   $ROOT/HTAP/v2015-03/CO/EDGAR_HTAP_CO_TRANSPORT.generic.01x01.nc     emi_co  2008-2010/1-12/1/0 C xy kg/m2/s COtracer25days 6/28/26 1/2 4
0 HTAP_COtrc50d_TRA   -                                                                   -       -                  - -  -       COtracer50days 6/28/26 1/2 4
#0 HTAP_COtrc25d_AIR1 $ROOT/HTAP/v2015-03/CO/EDGAR_HTAP_CO_AIR_LTO.generic.01x01.nc       emi_co  2008-2010/1/1/0    C xy kg/m2/s COtracer25days 6/28/26 1/2 4
#0 HTAP_COtrc50d_AIR1 -                                                                   -       -                  - -  -       COtracer50days 6/28/26 1/2 4
#0 HTAP_COtrc25d_AIR2 $ROOT/HTAP/v2015-03/CO/EDGAR_HTAP_CO_AIR_CDS.generic.01x01.nc       emi_co  2008-2010/1/1/0    C xy kg/m2/s COtracer25days 6/28/26 1/2 4
#0 HTAP_COtrc50d_AIR2 -                                                                   -       -                  - -  -       COtracer50days 6/28/26 1/2 4
#0 HTAP_COtrc25d_AIR3 $ROOT/HTAP/v2015-03/CO/EDGAR_HTAP_CO_AIR_CRS.generic.01x01.nc       emi_co  2008-2010/1/1/0    C xy kg/m2/s COtracer25days 6/28/26 1/2 4
#0 HTAP_COtrc50d_AIR3 -                                                                   -       -                  - -  -       COtracer50days 6/28/26 1/2 4
)))HTAP

(((CEDS
0 CEDS_COtrc25d_ENE   $ROOT/CEDS/v2018-08/$YYYY/CO-em-anthro_CMIP_CEDS_$YYYY.nc  CO_ene  1950-2014/1-12/1/0 C xy kg/m2/s COtracer25days  26 1/2/12 5
0 CEDS_COtrc50d_ENE   -                                                          -       -                  - -  -       COtracer50days  26 1/2/12 5
0 CEDS_COtrc25d_IND   $ROOT/CEDS/v2018-08/$YYYY/CO-em-anthro_CMIP_CEDS_$YYYY.nc  CO_ind  1950-2014/1-12/1/0 C xy kg/m2/s COtracer25days  26 1/2/12 5
0 CEDS_COtrc50d_IND   -                                                          -       -                  - -  -       COtracer50days  26 1/2/12 5
0 CEDS_COtrc25d_TRA   $ROOT/CEDS/v2018-08/$YYYY/CO-em-anthro_CMIP_CEDS_$YYYY.nc  CO_tra  1950-2014/1-12/1/0 C xy kg/m2/s COtracer25days  26 1/2/12 5
0 CEDS_COtrc50d_TRA   -                                                          -       -                  - -  -       COtracer50days  26 1/2/12 5
0 CEDS_COtrc25d_RCO   $ROOT/CEDS/v2018-08/$YYYY/CO-em-anthro_CMIP_CEDS_$YYYY.nc  CO_rco  1950-2014/1-12/1/0 C xy kg/m2/s COtracer25days  26 1/2/12 5
0 CEDS_COtrc50d_RCO   -                                                          -       -                  - -  -       COtracer50days  26 1/2/12 5
0 CEDS_COtrc25d_SLV   $ROOT/CEDS/v2018-08/$YYYY/CO-em-anthro_CMIP_CEDS_$YYYY.nc  CO_slv  1950-2014/1-12/1/0 C xy kg/m2/s COtracer25days  26 1/2/12 5
0 CEDS_COtrc50d_SLV   -                                                          -       -                  - -  -       COtracer50days  26 1/2/12 5
0 CEDS_COtrc25d_WST   $ROOT/CEDS/v2018-08/$YYYY/CO-em-anthro_CMIP_CEDS_$YYYY.nc  CO_wst  1950-2014/1-12/1/0 C xy kg/m2/s COtracer25days  26 1/2/12 5
0 CEDS_COtrc50d_WST   -                                                          -       -                  - -  -       COtracer50days  26 1/2/12 5
)))CEDS

#==============================================================================
# e90 tracer is emitted with a uniform flux of 100 ppbv
#==============================================================================
0 SRC_2D_Emis90day   100 - - - xy ppbv Emis90dayTracer   -    1 1
0 SRC_2D_Emis90dayNH 100 - - - xy ppbv Emis90dayTracerNH 1001 1 1
0 SRC_2D_Emis90daySH 100 - - - xy ppbv Emis90dayTracerSH 1002 1 1

#==============================================================================
# Uniform surface emission of 2400 Tg/yr
#==============================================================================
0 SRC_2D_Uniform 1.5e-7 - - - xy kg/m2/s UniformTracer - 1 1

###############################################################################
### EXTENSION DATA (subsection of BASE EMISSIONS SECTION)
###
### These fields are needed by the extensions listed above. The assigned ExtNr 
### must match the ExtNr entry in section 'Extension switches'. These fields 
### are only read if the extension is enabled.  The fields are imported by the
### extensions by field name.  The name given here must match the name used 
### in the extension's source code. 
###############################################################################

###############################################################################
### NON-EMISSIONS DATA (subsection of BASE EMISSIONS SECTION)
###
### Non-emissions data. The following fields are read through HEMCO but do 
### not contain emissions data. The extension number is set to wildcard 
### character denoting that these fields will not be considered for emission 
### calculation. A given entry is only read if the assigned species name is 
### an HEMCO species.
###############################################################################

#==============================================================================
# --- Meteorology fields for FlexGrid ---
#==============================================================================

# --- CN fields ---
* FRLAKE    $METDIR/$CNYR/01/$MET.$CNYR0101.CN.$RES.$NC        FRLAKE   */1/1/0               C xy  1  * -  1 1
* FRLAND    $METDIR/$CNYR/01/$MET.$CNYR0101.CN.$RES.$NC        FRLAND   */1/1/0               C xy  1  * -  1 1
* FRLANDIC  $METDIR/$CNYR/01/$MET.$CNYR0101.CN.$RES.$NC        FRLANDIC */1/1/0               C xy  1  * -  1 1
* FROCEAN   $METDIR/$CNYR/01/$MET.$CNYR0101.CN.$RES.$NC        FROCEAN  */1/1/0               C xy  1  * -  1 1
* PHIS      $METDIR/$CNYR/01/$MET.$CNYR0101.CN.$RES.$NC        PHIS     */1/1/0               C xy  1  * -  1 1

# --- A1 fields ---
* ALBEDO    $METDIR/$YYYY/$MM/$MET.$YYYY$MM$DD.A1.$RES.$NC     ALBEDO   1980-2018/1-12/1-31/0-23/+30minute C xy  1  * -  1 1
* CLDTOT    $METDIR/$YYYY/$MM/$MET.$YYYY$MM$DD.A1.$RES.$NC     CLDTOT   1980-2018/1-12/1-31/0-23/+30minute C xy  1  * -  1 1
* EFLUX     $METDIR/$YYYY/$MM/$MET.$YYYY$MM$DD.A1.$RES.$NC     EFLUX    1980-2018/1-12/1-31/0-23/+30minute C xy  1  * -  1 1
* EVAP      $METDIR/$YYYY/$MM/$MET.$YYYY$MM$DD.A1.$RES.$NC     EVAP     1980-2018/1-12/1-31/0-23/+30minute C xy  1  * -  1 1
* FRSEAICE  $METDIR/$YYYY/$MM/$MET.$YYYY$MM$DD.A1.$RES.$NC     FRSEAICE 1980-2018/1-12/1-31/0-23/+30minute C xy  1  * -  1 1
* FRSNO     $METDIR/$YYYY/$MM/$MET.$YYYY$MM$DD.A1.$RES.$NC     FRSNO    1980-2018/1-12/1-31/0-23/+30minute C xy  1  * -  1 1
* GRN       $METDIR/$YYYY/$MM/$MET.$YYYY$MM$DD.A1.$RES.$NC     GRN      1980-2018/1-12/1-31/0-23/+30minute C xy  1  * -  1 1
* GWETROOT  $METDIR/$YYYY/$MM/$MET.$YYYY$MM$DD.A1.$RES.$NC     GWETROOT 1980-2018/1-12/1-31/0-23/+30minute C xy  1  * -  1 1
* GWETTOP   $METDIR/$YYYY/$MM/$MET.$YYYY$MM$DD.A1.$RES.$NC     GWETTOP  1980-2018/1-12/1-31/0-23/+30minute C xy  1  * -  1 1
* HFLUX     $METDIR/$YYYY/$MM/$MET.$YYYY$MM$DD.A1.$RES.$NC     HFLUX    1980-2018/1-12/1-31/0-23/+30minute C xy  1  * -  1 1
* LAI       $METDIR/$YYYY/$MM/$MET.$YYYY$MM$DD.A1.$RES.$NC     LAI      1980-2018/1-12/1-31/0-23/+30minute C xy  1  * -  1 1
* LWI       $METDIR/$YYYY/$MM/$MET.$YYYY$MM$DD.A1.$RES.$NC     LWI      1980-2018/1-12/1-31/0-23/+30minute C xy  1  * -  1 1
* LWGNT     $METDIR/$YYYY/$MM/$MET.$YYYY$MM$DD.A1.$RES.$NC     LWGNT    1980-2018/1-12/1-31/0-23/+30minute C xy  1  * -  1 1
* PARDF     $METDIR/$YYYY/$MM/$MET.$YYYY$MM$DD.A1.$RES.$NC     PARDF    1980-2018/1-12/1-31/0-23/+30minute C xy  1  * -  1 1
* PARDR     $METDIR/$YYYY/$MM/$MET.$YYYY$MM$DD.A1.$RES.$NC     PARDR    1980-2018/1-12/1-31/0-23/+30minute C xy  1  * -  1 1
* PBLH      $METDIR/$YYYY/$MM/$MET.$YYYY$MM$DD.A1.$RES.$NC     PBLH     1980-2018/1-12/1-31/0-23/+30minute C xy  1  * -  1 1
* PRECANV   $METDIR/$YYYY/$MM/$MET.$YYYY$MM$DD.A1.$RES.$NC     PRECANV  1980-2018/1-12/1-31/0-23/+30minute C xy  1  * -  1 1
* PRECCON   $METDIR/$YYYY/$MM/$MET.$YYYY$MM$DD.A1.$RES.$NC     PRECCON  1980-2018/1-12/1-31/0-23/+30minute C xy  1  * -  1 1
* PRECLSC   $METDIR/$YYYY/$MM/$MET.$YYYY$MM$DD.A1.$RES.$NC     PRECLSC  1980-2018/1-12/1-31/0-23/+30minute C xy  1  * -  1 1
* PRECSNO   $METDIR/$YYYY/$MM/$MET.$YYYY$MM$DD.A1.$RES.$NC     PRECSNO  1980-2018/1-12/1-31/0-23/+30minute C xy  1  * -  1 1
* PRECTOT   $METDIR/$YYYY/$MM/$MET.$YYYY$MM$DD.A1.$RES.$NC     PRECTOT  1980-2018/1-12/1-31/0-23/+30minute C xy  1  * -  1 1
* SEAICE00  $METDIR/$YYYY/$MM/$MET.$YYYY$MM$DD.A1.$RES.$NC     SEAICE00 1980-2018/1-12/1-31/0-23/+30minute C xy  1  * -  1 1
* SEAICE10  $METDIR/$YYYY/$MM/$MET.$YYYY$MM$DD.A1.$RES.$NC     SEAICE10 1980-2018/1-12/1-31/0-23/+30minute C xy  1  * -  1 1
* SEAICE20  $METDIR/$YYYY/$MM/$MET.$YYYY$MM$DD.A1.$RES.$NC     SEAICE20 1980-2018/1-12/1-31/0-23/+30minute C xy  1  * -  1 1
* SEAICE30  $METDIR/$YYYY/$MM/$MET.$YYYY$MM$DD.A1.$RES.$NC     SEAICE30 1980-2018/1-12/1-31/0-23/+30minute C xy  1  * -  1 1
* SEAICE40  $METDIR/$YYYY/$MM/$MET.$YYYY$MM$DD.A1.$RES.$NC     SEAICE40 1980-2018/1-12/1-31/0-23/+30minute C xy  1  * -  1 1
* SEAICE50  $METDIR/$YYYY/$MM/$MET.$YYYY$MM$DD.A1.$RES.$NC     SEAICE50 1980-2018/1-12/1-31/0-23/+30minute C xy  1  * -  1 1
* SEAICE60  $METDIR/$YYYY/$MM/$MET.$YYYY$MM$DD.A1.$RES.$NC     SEAICE60 1980-2018/1-12/1-31/0-23/+30minute C xy  1  * -  1 1
* SEAICE70  $METDIR/$YYYY/$MM/$MET.$YYYY$MM$DD.A1.$RES.$NC     SEAICE70 1980-2018/1-12/1-31/0-23/+30minute C xy  1  * -  1 1
* SEAICE80  $METDIR/$YYYY/$MM/$MET.$YYYY$MM$DD.A1.$RES.$NC     SEAICE80 1980-2018/1-12/1-31/0-23/+30minute C xy  1  * -  1 1
* SEAICE90  $METDIR/$YYYY/$MM/$MET.$YYYY$MM$DD.A1.$RES.$NC     SEAICE90 1980-2018/1-12/1-31/0-23/+30minute C xy  1  * -  1 1
* SLP       $METDIR/$YYYY/$MM/$MET.$YYYY$MM$DD.A1.$RES.$NC     SLP      1980-2018/1-12/1-31/0-23/+30minute C xy  1  * -  1 1
* SNODP     $METDIR/$YYYY/$MM/$MET.$YYYY$MM$DD.A1.$RES.$NC     SNODP    1980-2018/1-12/1-31/0-23/+30minute C xy  1  * -  1 1
* SNOMAS    $METDIR/$YYYY/$MM/$MET.$YYYY$MM$DD.A1.$RES.$NC     SNOMAS   1980-2018/1-12/1-31/0-23/+30minute C xy  1  * -  1 1
* SWGDN     $METDIR/$YYYY/$MM/$MET.$YYYY$MM$DD.A1.$RES.$NC     SWGDN    1980-2018/1-12/1-31/0-23/+30minute C xy  1  * -  1 1
* TO3       $METDIR/$YYYY/$MM/$MET.$YYYY$MM$DD.A1.$RES.$NC     TO3      1980-2018/1-12/1-31/0-23/+30minute C xy  1  * -  1 1
* TROPPT    $METDIR/$YYYY/$MM/$MET.$YYYY$MM$DD.A1.$RES.$NC     TROPPT   1980-2018/1-12/1-31/0-23/+30minute C xy  1  * -  1 1
* TS        $METDIR/$YYYY/$MM/$MET.$YYYY$MM$DD.A1.$RES.$NC     TS       1980-2018/1-12/1-31/0-23/+30minute C xy  1  * -  1 1
* T2M       $METDIR/$YYYY/$MM/$MET.$YYYY$MM$DD.A1.$RES.$NC     T2M      1980-2018/1-12/1-31/0-23/+30minute C xy  1  * -  1 1
* U10M      $METDIR/$YYYY/$MM/$MET.$YYYY$MM$DD.A1.$RES.$NC     U10M     1980-2018/1-12/1-31/0-23/+30minute C xy  1  * -  1 1
* USTAR     $METDIR/$YYYY/$MM/$MET.$YYYY$MM$DD.A1.$RES.$NC     USTAR    1980-2018/1-12/1-31/0-23/+30minute C xy  1  * -  1 1
* V10M      $METDIR/$YYYY/$MM/$MET.$YYYY$MM$DD.A1.$RES.$NC     V10M     1980-2018/1-12/1-31/0-23/+30minute C xy  1  * -  1 1
* Z0M       $METDIR/$YYYY/$MM/$MET.$YYYY$MM$DD.A1.$RES.$NC     Z0M      1980-2018/1-12/1-31/0-23/+30minute C xy  1  * -  1 1

# --- A3cld fields ---
* CLOUD     $METDIR/$YYYY/$MM/$MET.$YYYY$MM$DD.A3cld.$RES.$NC  CLOUD    1980-2018/1-12/1-31/0-23/+90minute C xyz 1  * -  1 1
* OPTDEPTH  $METDIR/$YYYY/$MM/$MET.$YYYY$MM$DD.A3cld.$RES.$NC  OPTDEPTH 1980-2018/1-12/1-31/0-23/+90minute C xyz 1  * -  1 1
* QI        $METDIR/$YYYY/$MM/$MET.$YYYY$MM$DD.A3cld.$RES.$NC  QI       1980-2018/1-12/1-31/0-23/+90minute C xyz 1  * -  1 1
* QL        $METDIR/$YYYY/$MM/$MET.$YYYY$MM$DD.A3cld.$RES.$NC  QL       1980-2018/1-12/1-31/0-23/+90minute C xyz 1  * -  1 1
* TAUCLI    $METDIR/$YYYY/$MM/$MET.$YYYY$MM$DD.A3cld.$RES.$NC  TAUCLI   1980-2018/1-12/1-31/0-23/+90minute C xyz 1  * -  1 1
* TAUCLW    $METDIR/$YYYY/$MM/$MET.$YYYY$MM$DD.A3cld.$RES.$NC  TAUCLW   1980-2018/1-12/1-31/0-23/+90minute C xyz 1  * -  1 1

# --- A3dyn fields ---
* DTRAIN    $METDIR/$YYYY/$MM/$MET.$YYYY$MM$DD.A3dyn.$RES.$NC  DTRAIN   1980-2018/1-12/1-31/0-23/+90minute C xyz 1  * -  1 1
* OMEGA     $METDIR/$YYYY/$MM/$MET.$YYYY$MM$DD.A3dyn.$RES.$NC  OMEGA    1980-2018/1-12/1-31/0-23/+90minute C xyz 1  * -  1 1
* RH        $METDIR/$YYYY/$MM/$MET.$YYYY$MM$DD.A3dyn.$RES.$NC  RH       1980-2018/1-12/1-31/0-23/+90minute C xyz 1  * -  1 1
* U         $METDIR/$YYYY/$MM/$MET.$YYYY$MM$DD.A3dyn.$RES.$NC  U        1980-2018/1-12/1-31/0-23/+90minute C xyz 1  * -  1 1
* V         $METDIR/$YYYY/$MM/$MET.$YYYY$MM$DD.A3dyn.$RES.$NC  V        1980-2018/1-12/1-31/0-23/+90minute C xyz 1  * -  1 1

# --- A3mstC fields ---
* DQRCU     $METDIR/$YYYY/$MM/$MET.$YYYY$MM$DD.A3mstC.$RES.$NC DQRCU    1980-2018/1-12/1-31/0-23/+90minute C xyz 1  * -  1 1
* DQRLSAN   $METDIR/$YYYY/$MM/$MET.$YYYY$MM$DD.A3mstC.$RES.$NC DQRLSAN  1980-2018/1-12/1-31/0-23/+90minute C xyz 1  * -  1 1
* REEVAPCN  $METDIR/$YYYY/$MM/$MET.$YYYY$MM$DD.A3mstC.$RES.$NC REEVAPCN 1980-2018/1-12/1-31/0-23/+90minute C xyz 1  * -  1 1
* REEVAPLS  $METDIR/$YYYY/$MM/$MET.$YYYY$MM$DD.A3mstC.$RES.$NC REEVAPLS 1980-2018/1-12/1-31/0-23/+90minute C xyz 1  * -  1 1

# --- A3mstE fields ---
* CMFMC     $METDIR/$YYYY/$MM/$MET.$YYYY$MM$DD.A3mstE.$RES.$NC CMFMC    1980-2018/1-12/1-31/0-23/+90minute C xyz 1  * -  1 1
* PFICU     $METDIR/$YYYY/$MM/$MET.$YYYY$MM$DD.A3mstE.$RES.$NC PFICU    1980-2018/1-12/1-31/0-23/+90minute C xyz 1  * -  1 1
* PFILSAN   $METDIR/$YYYY/$MM/$MET.$YYYY$MM$DD.A3mstE.$RES.$NC PFILSAN  1980-2018/1-12/1-31/0-23/+90minute C xyz 1  * -  1 1
* PFLCU     $METDIR/$YYYY/$MM/$MET.$YYYY$MM$DD.A3mstE.$RES.$NC PFLCU    1980-2018/1-12/1-31/0-23/+90minute C xyz 1  * -  1 1
* PFLLSAN   $METDIR/$YYYY/$MM/$MET.$YYYY$MM$DD.A3mstE.$RES.$NC PFLLSAN  1980-2018/1-12/1-31/0-23/+90minute C xyz 1  * -  1 1

# --- I3 fields ---
* PS1       $METDIR/$YYYY/$MM/$MET.$YYYY$MM$DD.I3.$RES.$NC     PS       1980-2018/1-12/1-31/0-23           C xy  1  * -  1 1
* PS2       $METDIR/$YYYY/$MM/$MET.$YYYY$MM$DD.I3.$RES.$NC     PS       1980-2018/1-12/1-31/0-23/+3hour    C xy  1  * -  1 1
* SPHU1     $METDIR/$YYYY/$MM/$MET.$YYYY$MM$DD.I3.$RES.$NC     QV       1980-2018/1-12/1-31/0-23           C xyz 1  * -  1 1
* SPHU2     $METDIR/$YYYY/$MM/$MET.$YYYY$MM$DD.I3.$RES.$NC     QV       1980-2018/1-12/1-31/0-23/+3hour    C xyz 1  * -  1 1
* TMPU1     $METDIR/$YYYY/$MM/$MET.$YYYY$MM$DD.I3.$RES.$NC     T        1980-2018/1-12/1-31/0-23           C xyz 1  * -  1 1
* TMPU2     $METDIR/$YYYY/$MM/$MET.$YYYY$MM$DD.I3.$RES.$NC     T        1980-2018/1-12/1-31/0-23/+3hour    C xyz 1  * -  1 1

#==============================================================================
# --- GEOS-Chem restart file ---
#==============================================================================
(((GC_RESTART
* SPC_           ./GEOSChem.Restart.$YYYY$MM$DD_$HH$MNz.nc4 SpeciesRst_?ALL?    $YYYY/$MM/$DD/$HH CS xyz 1 * - 1 1
* TMPU           ./GEOSChem.Restart.$YYYY$MM$DD_$HH$MNz.nc4 Met_TMPU1           $YYYY/$MM/$DD/$HH E  xyz 1 * - 1 1
* SPHU           ./GEOSChem.Restart.$YYYY$MM$DD_$HH$MNz.nc4 Met_SPHU1           $YYYY/$MM/$DD/$HH E  xyz 1 * - 1 1
* PSDRY          ./GEOSChem.Restart.$YYYY$MM$DD_$HH$MNz.nc4 Met_PS1DRY          $YYYY/$MM/$DD/$HH E  xy  1 * - 1 1
* PSWET          ./GEOSChem.Restart.$YYYY$MM$DD_$HH$MNz.nc4 Met_PS1WET          $YYYY/$MM/$DD/$HH E  xy  1 * - 1 1
* DELPDRY        ./GEOSChem.Restart.$YYYY$MM$DD_$HH$MNz.nc4 Met_DELPDRY         $YYYY/$MM/$DD/$HH E  xyz 1 * - 1 1
)))GC_RESTART

#==============================================================================
# --- Time zones (offset to UTC) ---
#==============================================================================
* TIMEZONES $ROOT/TIMEZONES/v2015-02/timezones_voronoi_1x1.nc UTC_OFFSET 2000/1/1/0 C xy count * - 1 1

### END SECTION BASE EMISSIONS ###

###############################################################################
### BEGIN SECTION SCALE FACTORS 
###############################################################################

# ScalID Name sourceFile sourceVar sourceTime C/R/E SrcDim SrcUnit Oper

#==============================================================================
# --- annual scale factors ---
#==============================================================================
6  LIQFUEL_THISYR    $ROOT/AnnualScalar/v2014-07/AnnualScalar.geos.1x1.nc COscalar  1985-2010/1/1/0 C xy 1  1
28 LIQFUEL_2008_2010 $ROOT/AnnualScalar/v2014-07/AnnualScalar.geos.1x1.nc COscalar  2008-2010/1/1/0 C xy 1 -1

#==============================================================================
# --- diurnal scale factors --- 
#==============================================================================
26 GEIA_TOD_FOSSIL 0.45/0.45/0.6/0.6/0.6/0.6/1.45/1.45/1.45/1.45/1.4/1.4/1.4/1.4/1.45/1.45/1.45/1.45/0.65/0.65/0.65/0.65/0.45/0.45 - - - xy unitless 1

#==============================================================================
# --- VOC speciations ---
#==============================================================================
52 COPROD_FOSSIL    1.02  - - - xy unitless 1

#==============================================================================
# --- seasonal scale factors ---
#==============================================================================
# for EDGAR 4.3.1:
# Using data of 2010, the calculated seasonal ratio for different species in the 
# same sector are nearly identical, possibly due to consistent activity data used.
# Therefore we use the seasonal scale factors of CO in 2010 for most sectors, 
# except for AGR, AWB and SOL.
# For AGR, the NH3 AGR seasonal scale factors are used.
# For AWB, the CO AGR seasonal scale factors are used.
# For SOL, the NOx AGR seasonal scale factors are used.
1201 POW $ROOT/EDGARv43/v2016-11/EDGAR_v43.Seasonal.1x1.nc POW 2010/1-12/1/0 C xy unitless 1
1202 ENG $ROOT/EDGARv43/v2016-11/EDGAR_v43.Seasonal.1x1.nc ENG 2010/1-12/1/0 C xy unitless 1
1203 IND $ROOT/EDGARv43/v2016-11/EDGAR_v43.Seasonal.1x1.nc IND 2010/1-12/1/0 C xy unitless 1
1204 TRO $ROOT/EDGARv43/v2016-11/EDGAR_v43.Seasonal.1x1.nc TRO 2010/1-12/1/0 C xy unitless 1
1205 TNG $ROOT/EDGARv43/v2016-11/EDGAR_v43.Seasonal.1x1.nc TNG 2010/1-12/1/0 C xy unitless 1
1206 RCO $ROOT/EDGARv43/v2016-11/EDGAR_v43.Seasonal.1x1.nc RCO 2010/1-12/1/0 C xy unitless 1
1207 PPA $ROOT/EDGARv43/v2016-11/EDGAR_v43.Seasonal.1x1.nc PPA 2010/1-12/1/0 C xy unitless 1
1208 AGR $ROOT/EDGARv43/v2016-11/EDGAR_v43.Seasonal.1x1.nc AGR 2010/1-12/1/0 C xy unitless 1
1209 AWB $ROOT/EDGARv43/v2016-11/EDGAR_v43.Seasonal.1x1.nc AWB 2010/1-12/1/0 C xy unitless 1
1210 SOL $ROOT/EDGARv43/v2016-11/EDGAR_v43.Seasonal.1x1.nc SOL 2010/1-12/1/0 C xy unitless 1
1211 SWD $ROOT/EDGARv43/v2016-11/EDGAR_v43.Seasonal.1x1.nc SWD 2010/1-12/1/0 C xy unitless 1
1212 FFF $ROOT/EDGARv43/v2016-11/EDGAR_v43.Seasonal.1x1.nc FFF 2010/1-12/1/0 C xy unitless 1

### END SECTION SCALE FACTORS ###

###############################################################################
### BEGIN SECTION MASKS 
###############################################################################

# ScalID Name sourceFile sourceVar sourceTime C/R/E SrcDim SrcUnit Oper Lon1/Lat1/Lon2/Lat2
1000 OCEAN_MASK $METDIR/$CNYR/01/$MET.$CNYR0101.CN.$RES.$NC FROCEAN 2000/1/1/0 C xy 1 1 -180/-90/180/90
1001 NH_MASK    -180/0/180/90  - 2000/1/1/0 C xy 1 1 -180/0/180/90
1002 SH_MASK    -180/-90/180/0 - 2000/1/1/0 C xy 1 1 -180/-90/180/0

### END SECTION MASKS ###
 
### END OF HEMCO INPUT FILE ###
#EOC
