#------------------------------------------------------------------------------
#                  Harvard-NASA Emissions Component (HEMCO)                   !
#------------------------------------------------------------------------------
#BOP
#
# !MODULE: HEMCO_Config.rc
#
# !DESCRIPTION: Contains configuration information for HEMCO. Define the
#  emissions inventories and corresponding file paths here. Entire 
#  configuration files can be inserted into this configuration file with
#  an '>>>include' statement, e.g. '>>>include HEMCO\_Config\_test.rc' 
#  The settings of include-files will be ignored.
#\\
#\\
# !REMARKS:
#  Customized for the POPs simulation for PHE. 
#
#  The following tokens will be replaced:
#  (1) ROOT    : Filepath to HEMCO root directory
#  (2) CFDIR   : Filepath to directory of this configuration file. 
#  (3) MET     : Met field type (from G-C compilation command)
#  (4) GRID    : Horizontal grid type (from G-C compilation command)
#  (5) SIM     : Simulation type (from G-C compilation command)
#  (6) NEST    : Nested-grid type (CH, EU, NA, SE)
#  (7) LEVRED  : String w/ the # of levels in the reduced GEOS-Chem grid
#                as used in some filenames (e.g. "23L", "30L", "47L")
#  (8) LEVFULL : String w/ the # of levels in the full GEOS-Chem grid
#                as used in some filenames (e.g. "55L", "72L")
# 
# !REVISION HISTORY: 
#  Navigate to your unit tester directory and type 'gitk' at the prompt
#  to browse the revision history.
#EOP
#------------------------------------------------------------------------------
#BOC
###############################################################################
### BEGIN SECTION SETTINGS
###############################################################################

ROOT:                        {DATA_ROOT}/HEMCO
METDIR:                      {DATA_ROOT}/GEOS_{GRID_DIR}/{MET_DIR}
Logfile:                     HEMCO.log
DiagnPrefix:                 HEMCO_diagnostics
DiagnFreq:                   End
Wildcard:                    *
Separator:                   /
Unit tolerance:              2
Negative values:             0
Only unitless scale factors: false
Verbose:                     {VERBOSE}
Warnings:                    {WARNINGS}

### END SECTION SETTINGS ###

###############################################################################
### BEGIN SECTION EXTENSION SWITCHES
###############################################################################
###
### This section lists all emission extensions available to HEMCO and whether 
### they shall be used or not. Extension 'base' must have extension number 
### zero, all other extension numbers can be freely chosen. Data fields in 
### section 'base emissions' will only be read if the corresponding extension 
### (identified by ExtNr) is enabled. Similarly, fields grouped into data 
### collections ('(((CollectionName', ')))CollectionName') are only considered
### if the corresponding data collection is enabled in this section. Data
### listed within a disabled extension are always ignored, even if they are
### grouped in an enabled collection (e.g. GFED-4 data will never be considered
### if the GFED extension is disabled, even if the GFED4 option is set to true).
###
### It is possible to define collections that are only evaluated if a
### collection name is *not* enabled. This is achieved by leading the
### collection name with '.not.', e.g. '(((.not.FINN_daily' ...
### '))).not.FINN_daily' for FINN monthly data (only used if daily data is
### not being used). 
###
### The ExtNr provided in this section must match with the ExtNr assigned to
### the data listed in the base emissions sections. Otherwise, the listed files
### won't be read!
###############################################################################
# ExtNr ExtName           on/off  Species
0       Base              : on    *
    --> GC_RESTART        :       true
#------------------------------------------------------------------------------
1002    GC_POPs           : on    POPG/POPPOCPO/POPPBCPO

### END SECTION EXTENSION SWITCHES ###

###############################################################################
### BEGIN SECTION BASE EMISSIONS 
###############################################################################

# ExtNr	Name sourceFile	sourceVar sourceTime C/R/E SrcDim SrcUnit Species ScalIDs Cat Hier

###############################################################################
### EXTENSION DATA (subsection of BASE EMISSIONS SECTION)
###
### These fields are needed by the extensions listed above. The assigned ExtNr 
### must match the ExtNr entry in section 'Extension switches'. These fields 
### are only read if the extension is enabled.  The fields are imported by the
### extensions by field name.  The name given here must match the name used 
### in the extension's source code. 
###############################################################################

#==============================================================================
# --- GEOS-Chem POPs emissions (Extension 1002) ---
#==============================================================================
1002 TOT_POP     $ROOT/POPs/v2015-08/PHE_wildfredist.generic.1x1.nc PG_SRCE__POPG  2004/1/1/0         C xy  kg/m2/s * - 1 1
1002 SURF_POP    $ROOT/POPs/v2015-08/PHE_soil_conc.geos5.4x5.nc     IJ_AVG_S__POPG 2009/1/1/0         C xy  1       * - 1 1
1002 SOIL_CARBON $ROOT/POPs/v2015-08/GTMM_carbon.generic.1x1.nc     SOIL_CARBON    1985/1/1/0         C xy  1       * - 1 1
1002 GLOBAL_OC   $ROOT/POPs/v2015-08/OCPO.$met.$RES.nc              OCPO           2005-2009/1-12/1/0 C xyz 1       * - 1 1
1002 GLOBAL_BC   $ROOT/POPs/v2015-08/BCPO.$met.$RES.nc              BCPO           2005-2009/1-12/1/0 C xyz 1       * - 1 1


###############################################################################
### NON-EMISSIONS DATA (subsection of BASE EMISSIONS SECTION)
###
### Non-emissions data. The following fields are read through HEMCO but do 
### not contain emissions data. The extension number is set to wildcard 
### character denoting that these fields will not be considered for emission 
### calculation. A given entry is only read if the assigned species name is 
### an HEMCO species.
###############################################################################

#==============================================================================
# --- Meteorology fields for FlexGrid ---
#==============================================================================

# --- CN fields ---
* FRLAKE    $METDIR/$CNYR/01/$MET.$CNYR0101.CN.$RES.$NC        FRLAKE   */1/1/0               C xy  1  * -  1 1
* FRLAND    $METDIR/$CNYR/01/$MET.$CNYR0101.CN.$RES.$NC        FRLAND   */1/1/0               C xy  1  * -  1 1
* FRLANDIC  $METDIR/$CNYR/01/$MET.$CNYR0101.CN.$RES.$NC        FRLANDIC */1/1/0               C xy  1  * -  1 1
* FROCEAN   $METDIR/$CNYR/01/$MET.$CNYR0101.CN.$RES.$NC        FROCEAN  */1/1/0               C xy  1  * -  1 1
* PHIS      $METDIR/$CNYR/01/$MET.$CNYR0101.CN.$RES.$NC        PHIS     */1/1/0               C xy  1  * -  1 1

# --- A1 fields ---
* ALBEDO    $METDIR/$YYYY/$MM/$MET.$YYYY$MM$DD.A1.$RES.$NC     ALBEDO   1980-2018/1-12/1-31/0-23/+30minute C xy  1  * -  1 1
* CLDTOT    $METDIR/$YYYY/$MM/$MET.$YYYY$MM$DD.A1.$RES.$NC     CLDTOT   1980-2018/1-12/1-31/0-23/+30minute C xy  1  * -  1 1
* EFLUX     $METDIR/$YYYY/$MM/$MET.$YYYY$MM$DD.A1.$RES.$NC     EFLUX    1980-2018/1-12/1-31/0-23/+30minute C xy  1  * -  1 1
* EVAP      $METDIR/$YYYY/$MM/$MET.$YYYY$MM$DD.A1.$RES.$NC     EVAP     1980-2018/1-12/1-31/0-23/+30minute C xy  1  * -  1 1
* FRSEAICE  $METDIR/$YYYY/$MM/$MET.$YYYY$MM$DD.A1.$RES.$NC     FRSEAICE 1980-2018/1-12/1-31/0-23/+30minute C xy  1  * -  1 1
* FRSNO     $METDIR/$YYYY/$MM/$MET.$YYYY$MM$DD.A1.$RES.$NC     FRSNO    1980-2018/1-12/1-31/0-23/+30minute C xy  1  * -  1 1
* GRN       $METDIR/$YYYY/$MM/$MET.$YYYY$MM$DD.A1.$RES.$NC     GRN      1980-2018/1-12/1-31/0-23/+30minute C xy  1  * -  1 1
* GWETROOT  $METDIR/$YYYY/$MM/$MET.$YYYY$MM$DD.A1.$RES.$NC     GWETROOT 1980-2018/1-12/1-31/0-23/+30minute C xy  1  * -  1 1
* GWETTOP   $METDIR/$YYYY/$MM/$MET.$YYYY$MM$DD.A1.$RES.$NC     GWETTOP  1980-2018/1-12/1-31/0-23/+30minute C xy  1  * -  1 1
* HFLUX     $METDIR/$YYYY/$MM/$MET.$YYYY$MM$DD.A1.$RES.$NC     HFLUX    1980-2018/1-12/1-31/0-23/+30minute C xy  1  * -  1 1
* LAI       $METDIR/$YYYY/$MM/$MET.$YYYY$MM$DD.A1.$RES.$NC     LAI      1980-2018/1-12/1-31/0-23/+30minute C xy  1  * -  1 1
* LWI       $METDIR/$YYYY/$MM/$MET.$YYYY$MM$DD.A1.$RES.$NC     LWI      1980-2018/1-12/1-31/0-23/+30minute C xy  1  * -  1 1
* LWGNT     $METDIR/$YYYY/$MM/$MET.$YYYY$MM$DD.A1.$RES.$NC     LWGNT    1980-2018/1-12/1-31/0-23/+30minute C xy  1  * -  1 1
* PARDF     $METDIR/$YYYY/$MM/$MET.$YYYY$MM$DD.A1.$RES.$NC     PARDF    1980-2018/1-12/1-31/0-23/+30minute C xy  1  * -  1 1
* PARDR     $METDIR/$YYYY/$MM/$MET.$YYYY$MM$DD.A1.$RES.$NC     PARDR    1980-2018/1-12/1-31/0-23/+30minute C xy  1  * -  1 1
* PBLH      $METDIR/$YYYY/$MM/$MET.$YYYY$MM$DD.A1.$RES.$NC     PBLH     1980-2018/1-12/1-31/0-23/+30minute C xy  1  * -  1 1
* PRECANV   $METDIR/$YYYY/$MM/$MET.$YYYY$MM$DD.A1.$RES.$NC     PRECANV  1980-2018/1-12/1-31/0-23/+30minute C xy  1  * -  1 1
* PRECCON   $METDIR/$YYYY/$MM/$MET.$YYYY$MM$DD.A1.$RES.$NC     PRECCON  1980-2018/1-12/1-31/0-23/+30minute C xy  1  * -  1 1
* PRECLSC   $METDIR/$YYYY/$MM/$MET.$YYYY$MM$DD.A1.$RES.$NC     PRECLSC  1980-2018/1-12/1-31/0-23/+30minute C xy  1  * -  1 1
* PRECSNO   $METDIR/$YYYY/$MM/$MET.$YYYY$MM$DD.A1.$RES.$NC     PRECSNO  1980-2018/1-12/1-31/0-23/+30minute C xy  1  * -  1 1
* PRECTOT   $METDIR/$YYYY/$MM/$MET.$YYYY$MM$DD.A1.$RES.$NC     PRECTOT  1980-2018/1-12/1-31/0-23/+30minute C xy  1  * -  1 1
* SEAICE00  $METDIR/$YYYY/$MM/$MET.$YYYY$MM$DD.A1.$RES.$NC     SEAICE00 1980-2018/1-12/1-31/0-23/+30minute C xy  1  * -  1 1
* SEAICE10  $METDIR/$YYYY/$MM/$MET.$YYYY$MM$DD.A1.$RES.$NC     SEAICE10 1980-2018/1-12/1-31/0-23/+30minute C xy  1  * -  1 1
* SEAICE20  $METDIR/$YYYY/$MM/$MET.$YYYY$MM$DD.A1.$RES.$NC     SEAICE20 1980-2018/1-12/1-31/0-23/+30minute C xy  1  * -  1 1
* SEAICE30  $METDIR/$YYYY/$MM/$MET.$YYYY$MM$DD.A1.$RES.$NC     SEAICE30 1980-2018/1-12/1-31/0-23/+30minute C xy  1  * -  1 1
* SEAICE40  $METDIR/$YYYY/$MM/$MET.$YYYY$MM$DD.A1.$RES.$NC     SEAICE40 1980-2018/1-12/1-31/0-23/+30minute C xy  1  * -  1 1
* SEAICE50  $METDIR/$YYYY/$MM/$MET.$YYYY$MM$DD.A1.$RES.$NC     SEAICE50 1980-2018/1-12/1-31/0-23/+30minute C xy  1  * -  1 1
* SEAICE60  $METDIR/$YYYY/$MM/$MET.$YYYY$MM$DD.A1.$RES.$NC     SEAICE60 1980-2018/1-12/1-31/0-23/+30minute C xy  1  * -  1 1
* SEAICE70  $METDIR/$YYYY/$MM/$MET.$YYYY$MM$DD.A1.$RES.$NC     SEAICE70 1980-2018/1-12/1-31/0-23/+30minute C xy  1  * -  1 1
* SEAICE80  $METDIR/$YYYY/$MM/$MET.$YYYY$MM$DD.A1.$RES.$NC     SEAICE80 1980-2018/1-12/1-31/0-23/+30minute C xy  1  * -  1 1
* SEAICE90  $METDIR/$YYYY/$MM/$MET.$YYYY$MM$DD.A1.$RES.$NC     SEAICE90 1980-2018/1-12/1-31/0-23/+30minute C xy  1  * -  1 1
* SLP       $METDIR/$YYYY/$MM/$MET.$YYYY$MM$DD.A1.$RES.$NC     SLP      1980-2018/1-12/1-31/0-23/+30minute C xy  1  * -  1 1
* SNODP     $METDIR/$YYYY/$MM/$MET.$YYYY$MM$DD.A1.$RES.$NC     SNODP    1980-2018/1-12/1-31/0-23/+30minute C xy  1  * -  1 1
* SNOMAS    $METDIR/$YYYY/$MM/$MET.$YYYY$MM$DD.A1.$RES.$NC     SNOMAS   1980-2018/1-12/1-31/0-23/+30minute C xy  1  * -  1 1
* SWGDN     $METDIR/$YYYY/$MM/$MET.$YYYY$MM$DD.A1.$RES.$NC     SWGDN    1980-2018/1-12/1-31/0-23/+30minute C xy  1  * -  1 1
* TO3       $METDIR/$YYYY/$MM/$MET.$YYYY$MM$DD.A1.$RES.$NC     TO3      1980-2018/1-12/1-31/0-23/+30minute C xy  1  * -  1 1
* TROPPT    $METDIR/$YYYY/$MM/$MET.$YYYY$MM$DD.A1.$RES.$NC     TROPPT   1980-2018/1-12/1-31/0-23/+30minute C xy  1  * -  1 1
* TS        $METDIR/$YYYY/$MM/$MET.$YYYY$MM$DD.A1.$RES.$NC     TS       1980-2018/1-12/1-31/0-23/+30minute C xy  1  * -  1 1
* T2M       $METDIR/$YYYY/$MM/$MET.$YYYY$MM$DD.A1.$RES.$NC     T2M      1980-2018/1-12/1-31/0-23/+30minute C xy  1  * -  1 1
* U10M      $METDIR/$YYYY/$MM/$MET.$YYYY$MM$DD.A1.$RES.$NC     U10M     1980-2018/1-12/1-31/0-23/+30minute C xy  1  * -  1 1
* USTAR     $METDIR/$YYYY/$MM/$MET.$YYYY$MM$DD.A1.$RES.$NC     USTAR    1980-2018/1-12/1-31/0-23/+30minute C xy  1  * -  1 1
* V10M      $METDIR/$YYYY/$MM/$MET.$YYYY$MM$DD.A1.$RES.$NC     V10M     1980-2018/1-12/1-31/0-23/+30minute C xy  1  * -  1 1
* Z0M       $METDIR/$YYYY/$MM/$MET.$YYYY$MM$DD.A1.$RES.$NC     Z0M      1980-2018/1-12/1-31/0-23/+30minute C xy  1  * -  1 1

# --- A3cld fields ---
* CLOUD     $METDIR/$YYYY/$MM/$MET.$YYYY$MM$DD.A3cld.$RES.$NC  CLOUD    1980-2018/1-12/1-31/0-23/+90minute C xyz 1  * -  1 1
* OPTDEPTH  $METDIR/$YYYY/$MM/$MET.$YYYY$MM$DD.A3cld.$RES.$NC  OPTDEPTH 1980-2018/1-12/1-31/0-23/+90minute C xyz 1  * -  1 1
* QI        $METDIR/$YYYY/$MM/$MET.$YYYY$MM$DD.A3cld.$RES.$NC  QI       1980-2018/1-12/1-31/0-23/+90minute C xyz 1  * -  1 1
* QL        $METDIR/$YYYY/$MM/$MET.$YYYY$MM$DD.A3cld.$RES.$NC  QL       1980-2018/1-12/1-31/0-23/+90minute C xyz 1  * -  1 1
* TAUCLI    $METDIR/$YYYY/$MM/$MET.$YYYY$MM$DD.A3cld.$RES.$NC  TAUCLI   1980-2018/1-12/1-31/0-23/+90minute C xyz 1  * -  1 1
* TAUCLW    $METDIR/$YYYY/$MM/$MET.$YYYY$MM$DD.A3cld.$RES.$NC  TAUCLW   1980-2018/1-12/1-31/0-23/+90minute C xyz 1  * -  1 1

# --- A3dyn fields ---
* DTRAIN    $METDIR/$YYYY/$MM/$MET.$YYYY$MM$DD.A3dyn.$RES.$NC  DTRAIN   1980-2018/1-12/1-31/0-23/+90minute C xyz 1  * -  1 1
* OMEGA     $METDIR/$YYYY/$MM/$MET.$YYYY$MM$DD.A3dyn.$RES.$NC  OMEGA    1980-2018/1-12/1-31/0-23/+90minute C xyz 1  * -  1 1
* RH        $METDIR/$YYYY/$MM/$MET.$YYYY$MM$DD.A3dyn.$RES.$NC  RH       1980-2018/1-12/1-31/0-23/+90minute C xyz 1  * -  1 1
* U         $METDIR/$YYYY/$MM/$MET.$YYYY$MM$DD.A3dyn.$RES.$NC  U        1980-2018/1-12/1-31/0-23/+90minute C xyz 1  * -  1 1
* V         $METDIR/$YYYY/$MM/$MET.$YYYY$MM$DD.A3dyn.$RES.$NC  V        1980-2018/1-12/1-31/0-23/+90minute C xyz 1  * -  1 1

# --- A3mstC fields ---
* DQRCU     $METDIR/$YYYY/$MM/$MET.$YYYY$MM$DD.A3mstC.$RES.$NC DQRCU    1980-2018/1-12/1-31/0-23/+90minute C xyz 1  * -  1 1
* DQRLSAN   $METDIR/$YYYY/$MM/$MET.$YYYY$MM$DD.A3mstC.$RES.$NC DQRLSAN  1980-2018/1-12/1-31/0-23/+90minute C xyz 1  * -  1 1
* REEVAPCN  $METDIR/$YYYY/$MM/$MET.$YYYY$MM$DD.A3mstC.$RES.$NC REEVAPCN 1980-2018/1-12/1-31/0-23/+90minute C xyz 1  * -  1 1
* REEVAPLS  $METDIR/$YYYY/$MM/$MET.$YYYY$MM$DD.A3mstC.$RES.$NC REEVAPLS 1980-2018/1-12/1-31/0-23/+90minute C xyz 1  * -  1 1

# --- A3mstE fields ---
* CMFMC     $METDIR/$YYYY/$MM/$MET.$YYYY$MM$DD.A3mstE.$RES.$NC CMFMC    1980-2018/1-12/1-31/0-23/+90minute C xyz 1  * -  1 1
* PFICU     $METDIR/$YYYY/$MM/$MET.$YYYY$MM$DD.A3mstE.$RES.$NC PFICU    1980-2018/1-12/1-31/0-23/+90minute C xyz 1  * -  1 1
* PFILSAN   $METDIR/$YYYY/$MM/$MET.$YYYY$MM$DD.A3mstE.$RES.$NC PFILSAN  1980-2018/1-12/1-31/0-23/+90minute C xyz 1  * -  1 1
* PFLCU     $METDIR/$YYYY/$MM/$MET.$YYYY$MM$DD.A3mstE.$RES.$NC PFLCU    1980-2018/1-12/1-31/0-23/+90minute C xyz 1  * -  1 1
* PFLLSAN   $METDIR/$YYYY/$MM/$MET.$YYYY$MM$DD.A3mstE.$RES.$NC PFLLSAN  1980-2018/1-12/1-31/0-23/+90minute C xyz 1  * -  1 1

# --- I3 fields ---
* PS1       $METDIR/$YYYY/$MM/$MET.$YYYY$MM$DD.I3.$RES.$NC     PS       1980-2018/1-12/1-31/0-23           C xy  1  * -  1 1
* PS2       $METDIR/$YYYY/$MM/$MET.$YYYY$MM$DD.I3.$RES.$NC     PS       1980-2018/1-12/1-31/0-23/+3hour    C xy  1  * -  1 1
* SPHU1     $METDIR/$YYYY/$MM/$MET.$YYYY$MM$DD.I3.$RES.$NC     QV       1980-2018/1-12/1-31/0-23           C xyz 1  * -  1 1
* SPHU2     $METDIR/$YYYY/$MM/$MET.$YYYY$MM$DD.I3.$RES.$NC     QV       1980-2018/1-12/1-31/0-23/+3hour    C xyz 1  * -  1 1
* TMPU1     $METDIR/$YYYY/$MM/$MET.$YYYY$MM$DD.I3.$RES.$NC     T        1980-2018/1-12/1-31/0-23           C xyz 1  * -  1 1
* TMPU2     $METDIR/$YYYY/$MM/$MET.$YYYY$MM$DD.I3.$RES.$NC     T        1980-2018/1-12/1-31/0-23/+3hour    C xyz 1  * -  1 1

#==============================================================================
# --- GEOS-Chem restart file ---
#==============================================================================
(((GC_RESTART
* SPC_           ./GEOSChem.Restart.$YYYY$MM$DD_$HH$MNz.nc4 SpeciesRst_?ALL?    $YYYY/$MM/$DD/$HH CS xyz 1 * - 1 1
* TMPU           ./GEOSChem.Restart.$YYYY$MM$DD_$HH$MNz.nc4 Met_TMPU1           $YYYY/$MM/$DD/$HH E  xyz 1 * - 1 1
* SPHU           ./GEOSChem.Restart.$YYYY$MM$DD_$HH$MNz.nc4 Met_SPHU1           $YYYY/$MM/$DD/$HH E  xyz 1 * - 1 1
* PSDRY          ./GEOSChem.Restart.$YYYY$MM$DD_$HH$MNz.nc4 Met_PS1DRY          $YYYY/$MM/$DD/$HH E  xy  1 * - 1 1
* PSWET          ./GEOSChem.Restart.$YYYY$MM$DD_$HH$MNz.nc4 Met_PS1WET          $YYYY/$MM/$DD/$HH E  xy  1 * - 1 1
* DELPDRY        ./GEOSChem.Restart.$YYYY$MM$DD_$HH$MNz.nc4 Met_DELPDRY         $YYYY/$MM/$DD/$HH E  xyz 1 * - 1 1
)))GC_RESTART

#==============================================================================
# --- Time zones (offset to UTC) ---
#==============================================================================
* TIMEZONES $ROOT/TIMEZONES/v2015-02/timezones_voronoi_1x1.nc UTC_OFFSET 2000/1/1/0 C xy count * - 1 1

#==============================================================================
# --- Oxidant fields (O3, OH) --
#==============================================================================
* GLOBAL_O3  $ROOT/O3/v2014-09/MERGE.O3.geos5.72L.2x25.nc                 O3 1985/1-12/1/0 C xyz v/v   * - 1 1
* GLOBAL_OH  $ROOT/OH/v2014-09/v7-02-03.GMI/OH_3Dglobal.geos5.72L.2x25.nc OH 1985/1-12/1/0 C xyz kg/m3 * - 1 1

### END SECTION BASE EMISSIONS ###

###############################################################################
### BEGIN SECTION SCALE FACTORS 
###############################################################################

# ScalID Name sourceFile sourceVar sourceTime C/R/E SrcDim SrcUnit Oper

### END SECTION SCALE FACTORS ###

###############################################################################
### BEGIN SECTION MASKS 
###############################################################################

# ScalID Name sourceFile sourceVar sourceTime C/R/E SrcDim SrcUnit Oper Lon1/Lat1/Lon2/Lat2

### END SECTION MASKS ###
 
### END OF HEMCO INPUT FILE ###
#EOC
