
EXPID:  OutputDir/GCHP
EXPDSC: GEOS-Chem_devel
CoresPerNode: 6


COLLECTIONS: 'center',
             #'inst',
             ::
  center.template:  '%y4%m2%d2_%h2%n2z.nc4',
  center.format:    'CFIO',
  center.frequency:  010000
  center.duration:   010000
  center.mode:      'time-averaged'
  center.fields:  'SpeciesConc_Rn     ', 'GIGCchem',
                  'SpeciesConc_Pb     ', 'GIGCchem',
                  'SpeciesConc_Be7    ', 'GIGCchem',
                  'SpeciesConc_PASV   ', 'GIGCchem',
                  'PbFromRnDecay      ', 'GIGCchem',
                  'RadDecay_Rn        ', 'GIGCchem',
                  'RadDecay_Pb        ', 'GIGCchem',
                  'RadDecay_Be7       ', 'GIGCchem', 
                  'WetLossLS_Pb       ', 'GIGCchem',
                  'WetLossLS_Be7      ', 'GIGCchem',
                  'DryDepMix_Pb       ', 'GIGCchem',
                  'DryDepMix_Be7      ', 'GIGCchem',
                  'DryDepVel_Pb       ', 'GIGCchem',
                  'DryDepVel_Be7      ', 'GIGCchem',
                  'Met_Tropp          ', 'GIGCchem',
                  'Met_Area_M2        ', 'GIGCchem',
                  'Met_U              ', 'GIGCchem',
                  'Met_V              ', 'GIGCchem',
                  'Met_OMEGA          ', 'GIGCchem',
                  'Met_TMPU1          ', 'GIGCchem',
                  'Met_SPHU1          ', 'GIGCchem',
                  'Met_TMPU2          ', 'GIGCchem',
                  'Met_SPHU2          ', 'GIGCchem',
                  'Met_PHIS           ', 'GIGCchem',
                  'Met_HFLUX          ', 'GIGCchem',
                  'Met_SWGDN          ', 'GIGCchem',
                  'Met_PRECTOT        ', 'GIGCchem',
                  'Met_PRECCON        ', 'GIGCchem',
                  'Met_TS             ', 'GIGCchem',
                  'Met_USTAR          ', 'GIGCchem',
                  'Met_Z0             ', 'GIGCchem',
                  'Met_PBLH           ', 'GIGCchem',
                  'Met_CLDFRC         ', 'GIGCchem',
                  'Met_U10M           ', 'GIGCchem',
                  'Met_V10M           ', 'GIGCchem',
                  'Met_ALBD           ', 'GIGCchem',
                  'Met_TROPP          ', 'GIGCchem',
                  'Met_SLP            ', 'GIGCchem',
                  'Met_TSKIN          ', 'GIGCchem',
                  'Met_PARDF          ', 'GIGCchem',
                  'Met_PARDR          ', 'GIGCchem',
                  'Met_GWETTOP        ', 'GIGCchem',
                  'Met_EFLUX          ', 'GIGCchem',
                  'Met_CLDTOPS        ', 'GIGCchem',
                  'Met_BXHEIGHT       ', 'GIGCchem',
                  'Met_AD             ', 'GIGCchem',
                  'Met_AVGW           ', 'GIGCchem',
                  'Met_AIRNUMDEN      ', 'GIGCchem',
                  'Met_T              ', 'GIGCchem',
                  'Met_PMID           ', 'GIGCchem',
                  'Met_RH             ', 'GIGCchem',
       ::
  inst.template:    '%y4%m2%d2_%h2%n2z.nc4',
  inst.format:      'CFIO',
  inst.frequency:   010000
  inst.duration:    010000
  inst.mode:        'instantaneous'
  inst.fields:    'SpeciesConc_Rn     ', 'GIGCchem',
                  'SpeciesConc_Pb     ', 'GIGCchem',
                  'SpeciesConc_Be7    ', 'GIGCchem',
                  'SpeciesConc_PASV   ', 'GIGCchem',
                  'PbFromRnDecay      ', 'GIGCchem',
                  'RadDecay_Rn        ', 'GIGCchem',
                  'RadDecay_Pb        ', 'GIGCchem',
                  'RadDecay_Be7       ', 'GIGCchem', 
                  'WetLossLS_Pb       ', 'GIGCchem',
                  'WetLossLS_Be7      ', 'GIGCchem',
                  'DryDepMix_Pb       ', 'GIGCchem',
                  'DryDepMix_Be7      ', 'GIGCchem',
                  'DryDepVel_Pb       ', 'GIGCchem',
                  'DryDepVel_Be7      ', 'GIGCchem',
                  'Met_Tropp          ', 'GIGCchem',
                  'Met_Area_M2        ', 'GIGCchem',
                  'Met_U              ', 'GIGCchem',
                  'Met_V              ', 'GIGCchem',
                  'Met_OMEGA          ', 'GIGCchem',
                  'Met_TMPU1          ', 'GIGCchem',
                  'Met_SPHU1          ', 'GIGCchem',
                  'Met_TMPU2          ', 'GIGCchem',
                  'Met_SPHU2          ', 'GIGCchem',
                  'Met_PHIS           ', 'GIGCchem',
                  'Met_HFLUX          ', 'GIGCchem',
                  'Met_SWGDN          ', 'GIGCchem',
                  'Met_PRECTOT        ', 'GIGCchem',
                  'Met_PRECCON        ', 'GIGCchem',
                  'Met_TS             ', 'GIGCchem',
                  'Met_USTAR          ', 'GIGCchem',
                  'Met_Z0             ', 'GIGCchem',
                  'Met_PBLH           ', 'GIGCchem',
                  'Met_CLDFRC         ', 'GIGCchem',
                  'Met_U10M           ', 'GIGCchem',
                  'Met_V10M           ', 'GIGCchem',
                  'Met_ALBD           ', 'GIGCchem',
                  'Met_TROPP          ', 'GIGCchem',
                  'Met_SLP            ', 'GIGCchem',
                  'Met_TSKIN          ', 'GIGCchem',
                  'Met_PARDF          ', 'GIGCchem',
                  'Met_PARDR          ', 'GIGCchem',
                  'Met_GWETTOP        ', 'GIGCchem',
                  'Met_EFLUX          ', 'GIGCchem',
                  'Met_CLDTOPS        ', 'GIGCchem',
                  'Met_BXHEIGHT       ', 'GIGCchem',
                  'Met_AD             ', 'GIGCchem',
                  'Met_AVGW           ', 'GIGCchem',
                  'Met_AIRNUMDEN      ', 'GIGCchem',
                  'Met_T              ', 'GIGCchem',
                  'Met_PMID           ', 'GIGCchem',
                  'Met_RH             ', 'GIGCchem',
       ::
