#------------------------------------------------------------------------------
#                  GEOS-Chem Global Chemical Transport Model                  !
#------------------------------------------------------------------------------
#BOP
#
# !INCLUDE: UnitTest.geosfp
#
# !DESCRIPTION: Input file that specifies debugging options for the 
#  GEOS-Chem unit tester.  Customized for GEOS-FP simulations.
#\\
#\\
# !REMARKS:  
#  Customize the unit tests for your system by specifying these values:
#  -------------------------------------------------------------------
#  VERSION     : A tag used to identify this Unit Test (e.g. v9-02o)
#  DESCRIPTION : A short description of what this unit test is validating
#  CODE_DIR    : Full path of the GEOS-Chem code directory
#  DATA_ROOT   : Root GEOS-Chem data directory
#  HEMCO_ROOT  : Root directory where HEMCO emissions data files are stored
#  RUN_ROOT    : Unit test run directories are subdirectories of RUN_ROOT
#  RUN_DIR     : Individual unit test run directory path
#  JOB_DIR     : Unit Test job script directory
#  LOG_DIR     : Unit Test log file directory
#  PERL_DIR    : Unit Test perl script directory (i.e. this directory)
#  VERBOSE     : HEMCO debug output level (0=no output, 3=max output)
#  WARNINGS    : HEMCO warnings output level (0=no warnings, 3=max warnings)
#  COMPILER    : Compiler used to build GEOS-Chem (e.g. "ifort", "pgi")
#  MAKE_CMD    : Make command with basic debugging flags
#  SUBMIT      : Submit command and queue name
#  TEMPLATE    : Template web page for displaying grid of results
#  WEB_GRID    : File name for web page containing unit test results
#  WEB_PUSH    : Remote location to send web page w/ unit test results
#
# !REMARKS:
#  This file specifies unit tests with GEOS-FP meteorology.
#  To omit individual unit tests, place a # in the first column.
#
# !REVISION HISTORY: 
#  22 Aug 2013 - R. Yantosca - Initial version
#  03 Sep 2013 - R. Yantosca - Now do 1-hr test runs for expediency
#  31 Jan 2014 - R. Yantosca - Now specify extra makefile options
#  24 Mar 2014 - R. Yantosca - Updated for web page w/ unit test matrix
#  14 Apr 2014 - R. Yantosca - Added unit test for POPs
#  28 Jul 2014 - R. Yantosca - Added HEMCO_ROOT directory
#  06 Mar 2015 - R. Yantosca - All data dirs are referenced w/r/t ExtData
#  13 Mar 2015 - M. Sulprizio- Now use USER token to specify file paths
#  21 May 2015 - R. Yantosca - Added VERBOSE and WARNINGS.  These default to
#                              3, 3, respectively if not specified
#EOP
#------------------------------------------------------------------------------
#
# !INPUTS:
#
   VERSION     : v10-01.geosfp
   DESCRIPTION : Tests GEOS-FP simulatiosn in GEOS-Chem
   CODE_DIR    : /home/{USER}/GC/Code.v10-01
   DATA_ROOT   : /as/data/geos/ExtData
   HEMCO_ROOT  : {DATAROOT}/HEMCO
   RUN_ROOT    : /home/{USER}/UT/runs
   RUN_DIR     : {RUNROOT}/{RUNDIR}
   JOB_DIR     : /home/{USER}/UT/jobs
   LOG_DIR     : /home/{USER}/UT/logs/{VERSION}
   PERL_DIR    : /home/{USER}/UT/perl
   VERBOSE     : 3
   WARNINGS    : 3
   COMPILER    : ifort
   MAKE_CMD    : make -j4 BOUNDS=y DEBUG=y FPE=y NO_ISO=y
   SUBMIT      : submit smp4
   TEMPLATE    : {PERLDIR}/ut_template.html
   WEB_GRID    : {LOGDIR}/{VERSION}.results.html
   WEB_PUSH    : NONE
#
# !RUNS:
#  Specify the debugging runs that you want to perform below.
#  You can deactivate runs by commenting them out with "#".
#
#--------|-----------|------|------------|------------|------------|---------|
# MET    | GRID      | NEST | SIMULATION | START DATE | END DATE   | EXTRA?  |
#--------|-----------|------|------------|------------|------------|---------|
  geosfp   4x5         -      RnPbBe       2013070100   2013070101   -
  geosfp   4x5         -      Hg           2013070100   2013070101   -
  geosfp   4x5         -      POPs         2013070100   2013070101   -
# geosfp   4x5         -      fullchem     2013070100   2013070101   -
# geosfp   4x5         -      soa          2013070100   2013070101   -
# geosfp   4x5         -      soa_svpoa    2013070100   2013070101   -
# geosfp   4x5         -      CH4          2013070100   2013070101   -
# geosfp   4x5         -      tagCO        2013070100   2013070101   -
# geosfp   4x5         -      TOMAS40      2013070100   2013070101  TOMAS40=y
# geosfp   4x5         -      UCX          2013070100   2013070101  UCX=y
 !END OF RUNS:
#EOP
#------------------------------------------------------------------------------
