#------------------------------------------------------------------------------
#                  GEOS-Chem Global Chemical Transport Model                  !
#------------------------------------------------------------------------------
#BOP
#
# !INCLUDE: UnitTest.nested
#
# !DESCRIPTION: Input file that specifies debugging options for the 
#  GEOS-Chem unit tester.  Customized for nested-grid simulations.
#\\
#\\
# !REMARKS:  
#  Customize the unit tests for your system by specifying these values:
#  -------------------------------------------------------------------
#  VERSION     : A tag used to identify this Unit Test (e.g. v9-02o)
#  DESCRIPTION : A short description of what this unit test is validating
#  CODE_DIR    : Full path of the GEOS-Chem code directory
#  DATA_ROOT   : Root GEOS-Chem data directory
#  HEMCO_ROOT  : Root directory where HEMCO emissions data files are stored
#  RUN_ROOT    : Unit test run directories are subdirectories of RUN_ROOT
#  RUN_DIR     : Individual unit test run directory path
#  JOB_DIR     : Unit Test job script directory
#  LOG_DIR     : Unit Test log file directory
#  PERL_DIR    : Unit Test perl script directory (i.e. this directory)
#  VERBOSE     : HEMCO debug output level (0=no output, 3=max output)
#  WARNINGS    : HEMCO warnings output level (0=no warnings, 3=max warnings)
#  COMPILER    : Compiler used to build GEOS-Chem (e.g. "ifort", "pgi")
#  MAKE_CMD    : Make command with basic debugging flags
#  SUBMIT      : Submit command and queue name
#  TEMPLATE    : Template web page for displaying grid of results
#  WEB_GRID    : File name for web page containing unit test results
#  WEB_PUSH    : Remote location to send web page w/ unit test results
#
# !REMARKS:
#  This file specifies unit tests for nested grid simulations (all met types).
#  To omit individual unit tests, place a # in the first column.
#
# !REVISION HISTORY: 
#  03 Apr 2015 - M. Sulprizio- Initial version
#  21 May 2015 - R. Yantosca - Added VERBOSE and WARNINGS.  These default to
#                              3, 3, respectively if not specified
#  27 May 2015 - M. Sulprizio- Renamed fullchem to tropchem
#EOP
#------------------------------------------------------------------------------
#
# !INPUTS:
#
   VERSION     : v10-01.nested
   DESCRIPTION : Tests GEOS-Chem nested-grid simulations
   CODE_DIR    : /home/{USER}/GC/Code.v10-01
   DATA_ROOT   : /as/data/geos/ExtData
   HEMCO_ROOT  : {DATAROOT}/HEMCO
   RUN_ROOT    : /home/{USER}/UT/runs
   RUN_DIR     : {RUNROOT}/{RUNDIR}
   JOB_DIR     : /home/{USER}/UT/jobs
   LOG_DIR     : /home/{USER}/UT/logs/{VERSION}
   PERL_DIR    : /home/{USER}/UT/perl
   VERBOSE     : 3
   WARNINGS    : 3
   COMPILER    : ifort
   MAKE_CMD    : make -j4 BOUNDS=y DEBUG=y FPE=y NO_ISO=y
   SUBMIT      : submit smp-large
   TEMPLATE    : {PERLDIR}/ut_template.html
   WEB_GRID    : {LOGDIR}/{VERSION}.results.html
   WEB_PUSH    : NONE
#
# !RUNS:
#  Specify the debugging runs that you want to perform below.
#  You can deactivate runs by commenting them out with "#".
#
#--------|-----------|------|------------|------------|--------------|--------|
# MET    | GRID      | NEST | SIMULATION | START DATE | END DATE     | EXTRA? |
#--------|-----------|------|------------|------------|--------------|--------|
  geos5    05x0666     ch     tropchem     2005070100   200507010120 -
  geos5    05x0666     na     tropchem     2006070100   200607010020 -
  geosfp   025x03125   ch     tropchem     2013070100   201307010010 -
  geosfp   025x03125   na     tropchem     2013070100   201307010010 -
 !END OF RUNS:
#EOP
#------------------------------------------------------------------------------
