#------------------------------------------------------------------------------
#                  GEOS-Chem Global Chemical Transport Model                  !
#------------------------------------------------------------------------------
#BOP
#
# !INCLUDE: UnitTest.geos5
#
# !DESCRIPTION: Input file that specifies debugging options for the 
#  GEOS-Chem unit tester.  Customized for GEOS-5 simulations.
#\\
#\\
# !REMARKS:  
#  Customize the unit tests for your system by specifying these values:
#  -------------------------------------------------------------------
#  VERSION     : A tag used to identify this Unit Test (e.g. v9-02o)
#  DESCRIPTION : A short description of what this unit test is validating
#  CODE_DIR    : Full path of the GEOS-Chem code directory
#  DATA_ROOT   : Root GEOS-Chem data directory
#  HEMCO_ROOT  : Root directory where HEMCO emissions data files are stored
#  RUN_ROOT    : Unit test run directories are subdirectories of RUN_ROOT
#  RUN_DIR     : Individual unit test run directory path
#  JOB_DIR     : Unit Test job script directory
#  LOG_DIR     : Unit Test log file directory
#  PERL_DIR    : Unit Test perl script directory (i.e. this directory)
#  VERBOSE     : HEMCO debug output level (0=no output, 3=max output)
#  WARNINGS    : HEMCO warnings output level (0=no warnings, 3=max warnings)
#  COMPILER    : Compiler used to build GEOS-Chem (e.g. "ifort", "pgi")
#  MAKE_CMD    : Make command with basic debugging flags
#  SUBMIT      : Submit command and queue name
#  TEMPLATE    : Template web page for displaying grid of results
#  WEB_GRID    : File name for web page containing unit test results
#  WEB_PUSH    : Remote location to send web page w/ unit test results
#
# !REMARKS:
#  This file specifies unit tests with GEOS-5 meteorology.
#  To omit individual unit tests, place a # in the first column.
#
# !REVISION HISTORY: 
#  22 Aug 2013 - R. Yantosca - Initial version
#  03 Sep 2013 - R. Yantosca - Now do 1-hr test runs for expediency
#  06 Sep 2013 - R. Yantosca - Add geos5_2x25_CO2
#  06 Nov 2013 - R. Yantosca - Add geos5_4x5_tagO3
#  06 Nov 2013 - R. Yantosca - Add geos5_2x25_fullchem
#  27 Jan 2014 - M. Sulprizio- Add geos5_4x5_CH4
#  31 Jan 2014 - R. Yantosca - Now specify extra makefile options
#  24 Mar 2014 - R. Yantosca - Updated for web page w/ unit test matrix
#  07 Apr 2014 - R. Yantosca - Updated for remote web page push (if desired)
#  14 Apr 2014 - R. Yantosca - Added unit test for POPs
#  28 Jul 2014 - R. Yantosca - Added HEMCO_ROOT directory
#  28 Jul 2014 - R. Yantosca - 2 x 2.5 runs now end after 30 mins
#  06 Mar 2015 - R. Yantosca - All data dirs are referenced w/r/t ExtData
#  13 Mar 2015 - M. Sulprizio- Now use USER token to specify file paths
#  19 Mar 2015 - R. Yantosca - Use 2006 instead of 2005 for GEOS-4, GEOS-5
#                              MERRA, so as to use NEI2011
#  19 Mar 2015 - R. Yantosca - Hg simulations should use 2005 (except GEOS-FP)
#  21 May 2015 - R. Yantosca - Added VERBOSE and WARNINGS.  These default to
#                              3, 3, respectively if not specified
#  18 Jun 2015 - M. Sulprizio- Now use HOME token to specify file paths
#  19 Jun 2015 - R. Yantosca - Add optional SLURM tags
#EOP
#------------------------------------------------------------------------------
#
# !INPUTS:
#
   VERSION         : v11-01.geos5
   DESCRIPTION     : Tests GEOS-5 simulations in GEOS-Chem
   CODE_DIR        : {HOME}/GC/Code.v11-01
   DATA_ROOT       : /as/data/geos/ExtData
   HEMCO_ROOT      : {DATAROOT}/HEMCO
   RUN_ROOT        : {HOME}/UT/runs
   RUN_DIR         : {RUNROOT}/{RUNDIR}
   JOB_DIR         : {HOME}/UT/jobs
   LOG_DIR         : {HOME}/UT/logs/{VERSION}
   PERL_DIR        : {HOME}/UT/perl
   VERBOSE         : 3
   WARNINGS        : 3
   COMPILER        : ifort
   MAKE_CMD        : make -j4 BOUNDS=y DEBUG=y FPE=y NO_ISO=y
   SUBMIT          : submit smp4
   TEMPLATE        : {PERLDIR}/ut_template.html
   WEB_GRID        : {LOGDIR}/{VERSION}.results.html
   TXT_GRID        : {LOGDIR}/{VERSION}.results.txt
   WEB_PUSH        : NONE
#
#  %%%%%%%%%%%%%%%%%%%%%%%%%%%%%%%%%%%%%%%%%%%%%%%%%%%%%%%%%%%%%%%%%%%%
#  %%%  OPTIONAL SLURM COMMANDS:                                    %%%
#  %%%                                                              %%%
#  %%%  Set these if your system uses the SLURM scheduler.          %%%
#  %%%  These will be used to set #SBATCH tags for the job script.  %%%
#  %%%  Otherwise you can comment these lines out.                  %%%
#  %%%                                                              %%%
#  %%%  NOTE: If you do use these SLURM commands, then also be      %%%
#  %%%  sure to set the SUBMIT command above to "sbatch".           %%%
#  %%%%%%%%%%%%%%%%%%%%%%%%%%%%%%%%%%%%%%%%%%%%%%%%%%%%%%%%%%%%%%%%%%%%
#
#   SLURM_CPUS      : 4
#   SLURM_NODES     : 1
#   SLURM_TIME      : 0-01:00
#   SLURM_MEMPERCPU : 2500
#   SLURM_PARTITION : general
#   SLURM_MAILUSER  : your-email-address
#   SLURM_STDOUT    : {LOGDIR}/{VERSION}.stdout.log
#   SLURM_STDERR    : {LOGDIR}/{VERSION}.stderr.log
#
# !RUNS:
#  Specify the debugging runs that you want to perform below.
#  You can deactivate runs by commenting them out with "#".
#
#--------|-----------|------|------------|------------|--------------|--------|
# MET    | GRID      | NEST | SIMULATION | START DATE | END DATE     | EXTRA? |
#--------|-----------|------|------------|------------|--------------|--------|
  geos5    4x5         -      RnPbBe       2006070100   2006070101     -
# geos5    4x5         -      Hg           2009010100   2009010101     -
# geos5    4x5         -      POPs         2006070100   2006070101     -
# geos5    4x5         -      CH4          2006070100   2006070101     -
# geos5    4x5         -      tropchem     2006070100   2006070101     -
# geos5    4x5         -      soa          2006070100   2006070101     -
# geos5    4x5         -      soa_svpoa    2006070100   2006070101     -
# geos5    4x5         -      tagO3        2006070100   2006070103     -
# geos5    4x5         -      tagCO        2006070100   2006070101     -
# geos5    4x5         -      TOMAS40      2006070100   2006070101     -
# geos5    2x25        -      RnPbBe       2006070100   200607010030   -
# geos5    2x25        -      Hg           2009010100   200901010030   -
# geos5    2x25        -      POPs         2006070100   200607010030   -
# geos5    2x25        -      CH4          2006070100   200607010030   -
# geos5    2x25        -      tagO3        2006070100   200607010030   -
# geos5    2x25        -      CO2          2006070100   200607010030   -
# geos5    2x25        -      aerosol      2006070100   200607010030   -
# geos5    2x25        -      tropchem     2006070100   200607010030   -
# geos5    2x25        -      soa          2006070100   200607010030   -
# geos5    2x25        -      soa_svpoa    2006070100   200607010030   -
# geos5    2x25        -      UCX          2006070100   200607010030   -
# geos5    2x25        -      RRTMG        2006070100   2006070102     -
# geos5    05x0666     na     CH4          2006070100   200607010020   -
# geos5    05x0666     ch     tropchem     2006070100   200607010020   -
# geos5    05x0666     na     tropchem     2006070100   200607010020   -
!END OF RUNS:
#EOP
#------------------------------------------------------------------------------
