#------------------------------------------------------------------------------
#                  GEOS-Chem Global Chemical Transport Model                  !
#------------------------------------------------------------------------------
#BOP
#
# !INCLUDE: UnitTest.specialty
#
# !DESCRIPTION: Input file that specifies debugging options for the 
#  GEOS-Chem unit tester. Customized for specialty (aka "offline") simulations.
#\\
#\\
# !REMARKS:  
#  To omit individual unit tests, place a # in the first column.
#
#  Customize the unit tests for your system by specifying these values:
#  -------------------------------------------------------------------
#  VERSION     : A tag used to identify this Unit Test (e.g. v9-02o)
#  DESCRIPTION : A short description of what this unit test is validating
#  CODE_DIR    : Full path of the GEOS-Chem code directory
#  DATA_ROOT   : Root GEOS-Chem data directory
#  HEMCO_ROOT  : Root directory where HEMCO emissions data files are stored
#  RUN_ROOT    : Unit test run directories are subdirectories of RUN_ROOT
#  RUN_DIR     : Individual unit test run directory path
#  JOB_DIR     : Unit Test job script directory
#  LOG_DIR     : Unit Test log file directory
#  PERL_DIR    : Unit Test perl script directory (i.e. this directory)
#  VERBOSE     : HEMCO debug output level (0=no output, 3=max output)
#  WARNINGS    : HEMCO warnings output level (0=no warnings, 3=max warnings)
#  COMPILER    : Compiler used to build GEOS-Chem (e.g. "ifort", "pgi")
#  MAKE_CMD    : Make command with basic debugging flags
#  SUBMIT      : Submit command and queue name
#  TEMPLATE    : Template web page for displaying grid of results
#  WEB_GRID    : File name for web page containing unit test results
#  WEB_PUSH    : Remote location to send web page w/ unit test results
#
# !REVISION HISTORY: 
# Type 'gitk' at the prompt to browse the revision history.
#EOP
#------------------------------------------------------------------------------
#
# !INPUTS:
#
   VERSION         : v11-01.specialty
   DESCRIPTION     : Tests specialty simulations in GEOS-Chem
   CODE_DIR        : {HOME}/GC/Code.v11-01
   DATA_ROOT       : /n/seasasfs01/gcgrid/data/ExtData
   HEMCO_ROOT      : {DATAROOT}/HEMCO
   RUN_ROOT        : {HOME}/UT/runs
   RUN_DIR         : {RUNROOT}/{RUNDIR}
   JOB_DIR         : {HOME}/UT/jobs
   LOG_DIR         : {HOME}/UT/logs/{VERSION}
   PERL_DIR        : {HOME}/UT/perl
   VERBOSE         : 3
   WARNINGS        : 3
   COMPILER        : ifort
   MAKE_CMD        : make -j4 BOUNDS=y DEBUG=y FPE=y NO_ISO=y
   SUBMIT          : sbatch
   TEMPLATE        : {PERLDIR}/ut_template.html
   TXT_GRID        : {LOGDIR}/{VERSION}.results.txt
   WEB_GRID        : {LOGDIR}/{VERSION}.results.html
   WEB_PUSH        : NONE
#
#  %%%%%%%%%%%%%%%%%%%%%%%%%%%%%%%%%%%%%%%%%%%%%%%%%%%%%%%%%%%%%%%%%%%%
#  %%%  OPTIONAL SLURM COMMANDS:                                    %%%
#  %%%                                                              %%%
#  %%%  Set these if your system uses the SLURM scheduler.          %%%
#  %%%  These will be used to set #SBATCH tags for the job script.  %%%
#  %%%  Otherwise you can comment these lines out.                  %%%
#  %%%                                                              %%%
#  %%%  NOTE: If you do use these SLURM commands, then also be      %%%
#  %%%  sure to set the SUBMIT command above to "sbatch".           %%%
#  %%%%%%%%%%%%%%%%%%%%%%%%%%%%%%%%%%%%%%%%%%%%%%%%%%%%%%%%%%%%%%%%%%%%
#
   SLURM_CPUS      : 4
   SLURM_NODES     : 1
   SLURM_TIME      : 1-00:00
   SLURM_MEMORY    : 12000
   SLURM_PARTITION : jacob
   SLURM_MAILTYPE  : ALL
   SLURM_MAILUSER  : your-email-address
   SLURM_STDOUT    : {LOGDIR}/{VERSION}.stdout.log
   SLURM_STDERR    : {LOGDIR}/{VERSION}.stderr.log
#
# !RUNS:
#  Specify the debugging runs that you want to perform below.
#  You can deactivate runs by commenting them out with "#".
#
#--------|-----------|------|------------|------------|--------------|--------|
# MET    | GRID      | NEST | SIMULATION | START DATE | END DATE     | EXTRA? |
#--------|-----------|------|------------|------------|--------------|--------|
# ======= Radon-Lead-Beryllium ===============================================
  geosfp   4x5         -      RnPbBe       2013070100   2013070101     -
  merra2   4x5         -      RnPbBe       2013070100   2013070101     -
  merra    4x5         -      RnPbBe       2006070100   2006070101     -
  geos5    4x5         -      RnPbBe       2006070100   2006070101     -
  geos4    4x5         -      RnPbBe       2006070100   2006070101     -
  gcap     4x5         -      RnPbBe       2005070100   2005070101     -
  geosfp   2x25        -      RnPbBe       2013070100   201307010030   -
  geos5    2x25        -      RnPbBe       2006070100   200607010030   -
# ======= Mercury ============================================================
  geosfp   4x5         -      Hg           2013010100   2013010101     -
  merra2   4x5         -      Hg           2013010100   2013010101     -
  merra    4x5         -      Hg           2009010100   2009010101     -
  geos5    4x5         -      Hg           2009010100   2009010101     -
  geos4    4x5         -      Hg           2006010100   2006010101     -
  geosfp   2x25        -      Hg           2013010100   201301010030   -
  merra    2x25        -      Hg           2009010100   200901010030   -
  geos5    2x25        -      Hg           2009010100   200901010030   -
# geos5    05x0666     na     Hg           2008010100   200801010020   -
# ======= POPs ===============================================================
  geosfp   4x5         -      POPs         2013070100   2013070101     -
  merra2   4x5         -      POPs         2013070100   2013070101     -
  merra    4x5         -      POPs         2006070100   2006070101     -
  geos5    4x5         -      POPs         2006070100   2006070101     -
  geos4    4x5         -      POPs         2006070100   2006070101     -
  gcap     4x5         -      POPs         2005070100   2005070101     -
  geosfp   2x25        -      POPs         2013070100   201307010030   -
  geos5    2x25        -      POPs         2006070100   200607010030   -
# ======= Methane ============================================================
  geosfp   4x5         -      CH4          2013070100   2013070101     -
  merra2   4x5         -      CH4          2013070100   2013070101     -
  merra    4x5         -      CH4          2006070100   2006070101     -
  geos5    4x5         -      CH4          2006070100   2006070101     -
  geos4    4x5         -      CH4          2006070100   2006070101     -
  geosfp   2x25        -      CH4          2013070100   201307010030   -
  geos5    2x25        -      CH4          2006070100   200607010030   -
  geos5    05x0666     na     CH4          2006070100   200607010020   -
# ======= Tagged O3 ==========================================================
  geosfp   4x5         -      tagO3        2013070100   2013070101     -
  merra2   4x5         -      tagO3        2013070100   2013070101     -
  merra    4x5         -      tagO3        2006070100   2006070101     -
  geos5    4x5         -      tagO3        2006070100   2006070101     -
  geos4    4x5         -      tagO3        2006070100   2006070101     -
  geosfp   2x25        -      tagO3        2013070100   201307010030   -
  geos5    2x25        -      tagO3        2006070100   200607010030   -
##======= Tagged CO ==========================================================
#  geosfp   4x5         -      tagCO        2013070100   2013070101    -
#  merra    4x5         -      tagCO        2006070100   2006070101    -
#  geos5    4x5         -      tagCO        2006070100   2006070101    -
# ======= Carbon Dioxide =====================================================
  geosfp   2x25        -      CO2          2013070100   201307010030   -
  geos5    2x25        -      CO2          2006070100   200607010030   -
# ======= Offline Aerosols ===================================================
  geosfp   4x5         -      aerosol      2013070100   2013070101    - 
  merra    4x5         -      aerosol      2006070100   2006070101    -
  geos5    4x5         -      aerosol      2006070100   2006070101    -
  geos4    4x5         -      aerosol      2006070100   2006070101    -
  geosfp   2x25        -      aerosol      2013070100   201307010030  -
  geos5    2x25        -      aerosol      2006070100   200607010030  -
 !END OF RUNS:
#EOP
#------------------------------------------------------------------------------
