#------------------------------------------------------------------------------
#                  GEOS-Chem Global Chemical Transport Model                  !
#------------------------------------------------------------------------------
#BOP
#
# !INCLUDE: UnitTest.offline
#
# !DESCRIPTION: Input file that specifies debugging options for the 
#  GEOS-Chem unit tester.  Customized for offline simulations
#\\
#\\
# !REMARKS:  
#  Customize the unit tests for your system by specifying these values:
#  -------------------------------------------------------------------
#  VERSION     : A tag used to identify this Unit Test (e.g. v9-02o)
#  DESCRIPTION : A short description of what this unit test is validating
#  CODE_DIR    : Full path of the GEOS-Chem code directory
#  DATA_ROOT   : Root GEOS-Chem data directory
#  HEMCO_ROOT  : Root directory where HEMCO emissions data files are stored
#  RUN_ROOT    : Unit test run directories are subdirectories of RUN_ROOT
#  RUN_DIR     : Individual unit test run directory path
#  JOB_DIR     : Unit Test job script directory
#  LOG_DIR     : Unit Test log file directory
#  PERL_DIR    : Unit Test perl script directory (i.e. this directory)
#  COMPILER    : Compiler used to build GEOS-Chem (e.g. "ifort", "pgi")
#  MAKE_CMD    : Make command with basic debugging flags
#  SUBMIT      : Submit command and queue name
#  TEMPLATE    : Template web page for displaying grid of results
#  WEB_GRID    : File name for web page containing unit test results
#  WEB_PUSH    : Remote location to send web page w/ unit test results
#
# !REVISION HISTORY: 
#  22 Aug 2013 - R. Yantosca - Initial version
#  03 Sep 2013 - R. Yantosca - Now do 1-hr test runs for expediency
#  31 Jan 2014 - R. Yantosca - Now specify extra makefile options
#  27 Feb 2014 - R. Yantosca - Now grouped runs by simulation type
#  04 Apr 2014 - R. Yantosca - Now add the WEB_PATH to specify upload location
#  11 Apr 2014 - R. Yantosca - Add tagged CO unit tests
#  28 Jul 2014 - R. Yantosca - Add HEMCO_ROOT directory
#  28 Jul 2014 - R. Yantosca - 2 x 2.5 unit tests now end after 30 mins
#EOP
#------------------------------------------------------------------------------
#
# !INPUTS:
#
   VERSION     : v10-01.offline
   DESCRIPTION : Tests offline simulations in GEOS-Chem
   CODE_DIR    : /home/bmy/GC/Code.v10-01
   DATA_ROOT   : /as/data/geos
   HEMCO_ROOT  : {DATAROOT}/ExtData/HEMCO
   RUN_ROOT    : /home/bmy/UT/runs
   RUN_DIR     : {RUNROOT}/{RUNDIR}
   JOB_DIR     : /home/bmy/UT/jobs
   LOG_DIR     : /home/bmy/UT/logs/{VERSION}
   PERL_DIR    : /home/bmy/UT/perl
   COMPILER    : ifort
   MAKE_CMD    : make -j4 BOUNDS=y DEBUG=y FPE=y NO_ISO=y
   SUBMIT      : submit smp4
   TEMPLATE    : {PERLDIR}/ut_template.html
   WEB_GRID    : {LOGDIR}/{VERSION}.results.html
   WEB_PUSH    : geoschem@fas.harvard.edu|public_html/ut/
#
# !RUNS:
#  Specify the debugging runs that you want to perform below.
#  You can deactivate runs by commenting them out with "#".
#
#--------|-----------|------|------------|------------|------------|---------|
# MET    | GRID      | NEST | SIMULATION | START DATE | END DATE   | EXTRA?  |
#--------|-----------|------|------------|------------|------------|---------|
# ======= Radon-Lead-Beryllium ===============================================
  geosfp   4x5         -      RnPbBe       2013070100   2013070101   -
  merra    4x5         -      RnPbBe       2005070100   2005070101   -
  geos5    4x5         -      RnPbBe       2005070100   2005070101   -
  geos4    4x5         -      RnPbBe       2005070100   2005070101   -
# ======= Mercury ============================================================
  geosfp   4x5         -      Hg           2013070100   2013070101   -
  merra    4x5         -      Hg           2005070100   2005070101   -
  geos5    4x5         -      Hg           2005070100   2005070101   -
  geos4    4x5         -      Hg           2005070100   2005070101   -
# ======= POPs ===============================================================
  geosfp   4x5         -      POPs         2013070100   2013070101   -
  merra    4x5         -      POPs         2005070100   2005070101   -
  geos5    4x5         -      POPs         2005070100   2005070101   -
  geos4    4x5         -      POPs         2005070100   2005070101   -
# ======= Methane ============================================================
  geosfp   4x5         -      CH4          2013070100   2013070101   -
  merra    4x5         -      CH4          2005070100   2005070101   -
  geos5    4x5         -      CH4          2005070100   2005070101   -
  geos4    4x5         -      CH4          2004070100   2004070101   -
# ======= Tagged O3 ==========================================================
  geosfp   4x5         -      tagO3        2013070100   2013070101 TAGO3YR=2004
  merra    4x5         -      tagO3        2005070100   2005070101 TAGO3YR=2004
  geos5    4x5         -      tagO3        2005070100   2005070101 TAGO3YR=2004
  geos4    4x5         -      tagO3        2005070100   2005070101 TAGO3YR=2003
# ======= Tagged CO ==========================================================
  geosfp   4x5         -      tagCO        2013070100   2013070101   -
  merra    4x5         -      tagCO        2005070100   2005070101   -
  geos5    4x5         -      tagCO        2005070100   2005070101   -
# ======= Carbon Dioxide =====================================================
  geos5    2x25        -      CO2          2005070100   200507010030 -
 !END OF RUNS:
#EOP
#------------------------------------------------------------------------------
