#------------------------------------------------------------------------------
#                  GEOS-Chem Global Chemical Transport Model                  !
#------------------------------------------------------------------------------
#BOP
#
# !INCLUDE: UnitTest.4x5
#
# !DESCRIPTION: Input file that specifies debugging options for the 
#  GEOS-Chem unit tester.  Customized for 4x5 simulations.
#\\
#\\
# !REMARKS:  
#  To omit individual unit tests, place a # in the first column.
#
#  Customize the unit tests for your system by specifying these values:
#  -------------------------------------------------------------------
#  VERSION     : A tag used to identify this Unit Test (e.g. v9-02o)
#  DESCRIPTION : A short description of what this unit test is validating
#  CODE_DIR    : Full path of the GEOS-Chem code directory
#  DATA_ROOT   : Root GEOS-Chem data directory
#  HEMCO_ROOT  : Root directory where HEMCO emissions data files are stored
#  RUN_ROOT    : Unit test run directories are subdirectories of RUN_ROOT
#  RUN_DIR     : Individual unit test run directory path
#  JOB_DIR     : Unit Test job script directory
#  LOG_DIR     : Unit Test log file directory
#  PERL_DIR    : Unit Test perl script directory (i.e. this directory)
#  VERBOSE     : HEMCO debug output level (0=no output, 3=max output)
#  WARNINGS    : HEMCO warnings output level (0=no warnings, 3=max warnings)
#  COMPILER    : Compiler used to build GEOS-Chem (e.g. "ifort", "pgi")
#  MAKE_CMD    : Make command with basic debugging flags
#  SUBMIT      : Submit command and queue name
#  TEMPLATE    : Template web page for displaying grid of results
#  WEB_GRID    : File name for web page containing unit test results
#  WEB_PUSH    : Remote location to send web page w/ unit test results
#
# !REVISION HISTORY: 
# Type 'gitk' at the prompt to browse the revision history.
#EOP
#------------------------------------------------------------------------------
#
# !INPUTS:
#
   VERSION         : v11-01.4x5
   DESCRIPTION     : Tests 4x5 simulations in GEOS-Chem
   CODE_DIR        : {HOME}/GC/Code.v11-01
   DATA_ROOT       : /n/seasasfs01/gcgrid/data/ExtData
   HEMCO_ROOT      : {DATAROOT}/HEMCO
   RUN_ROOT        : {HOME}/UT/runs
   RUN_DIR         : {RUNROOT}/{RUNDIR}
   JOB_DIR         : {HOME}/UT/jobs
   LOG_DIR         : {HOME}/UT/logs/{VERSION}
   PERL_DIR        : {HOME}/UT/perl
   VERBOSE         : 3
   WARNINGS        : 3
   COMPILER        : ifort
   MAKE_CMD        : make -j4 BOUNDS=y DEBUG=y FPE=y NO_ISO=y
   SUBMIT          : sbatch
   TEMPLATE        : {PERLDIR}/ut_template.html
   TXT_GRID        : {LOGDIR}/{VERSION}.results.txt
   WEB_GRID        : {LOGDIR}/{VERSION}.results.html
   WEB_PUSH        : NONE
#
#  %%%%%%%%%%%%%%%%%%%%%%%%%%%%%%%%%%%%%%%%%%%%%%%%%%%%%%%%%%%%%%%%%%%%
#  %%%  OPTIONAL SLURM COMMANDS:                                    %%%
#  %%%                                                              %%%
#  %%%  Set these if your system uses the SLURM scheduler.          %%%
#  %%%  These will be used to set #SBATCH tags for the job script.  %%%
#  %%%  Otherwise you can comment these lines out.                  %%%
#  %%%                                                              %%%
#  %%%  NOTE: If you do use these SLURM commands, then also be      %%%
#  %%%  sure to set the SUBMIT command above to "sbatch".           %%%
#  %%%%%%%%%%%%%%%%%%%%%%%%%%%%%%%%%%%%%%%%%%%%%%%%%%%%%%%%%%%%%%%%%%%%
#
   SLURM_CPUS      : 4
   SLURM_NODES     : 1
   SLURM_TIME      : 1-00:00
   SLURM_MEMORY    : 12000
   SLURM_PARTITION : jacob
   SLURM_CONSTRAINT: intel
   SLURM_MAILTYPE  : ALL
   SLURM_MAILUSER  : your-email-address
   SLURM_STDOUT    : {LOGDIR}/{VERSION}.stdout.log
   SLURM_STDERR    : {LOGDIR}/{VERSION}.stderr.log
#
# !RUNS:
#  Specify the debugging runs that you want to perform below.
#  You can deactivate runs by commenting them out with "#".
#
#--------|-----------|------|------------|------------|--------------|--------|
# MET    | GRID      | NEST | SIMULATION | START DATE | END DATE     | EXTRA? |
#--------|-----------|------|------------|------------|--------------|--------|
# ======= GEOS-Chem benchmark ================================================
  geosfp   4x5         -      benchmark    2013070100   2013070101     -
# ======= Radon-Lead-Beryllium ===============================================
  geosfp   4x5         -      RnPbBe       2013070100   2013070101     -
  merra2   4x5         -      RnPbBe       2013070100   2013070101     -
  merra    4x5         -      RnPbBe       2006070100   2006070101     -
  geos5    4x5         -      RnPbBe       2006070100   2006070101     -
  geos4    4x5         -      RnPbBe       2006070100   2006070101     -
  gcap     4x5         -      RnPbBe       2005070100   2005070101     -
# ======= Mercury ============================================================
  geosfp   4x5         -      Hg           2013010100   2013010101     -
  merra2   4x5         -      Hg           2013010100   2013010101     -
  merra    4x5         -      Hg           2009010100   2009010101     -
  geos5    4x5         -      Hg           2009010100   2009010101     -
  geos4    4x5         -      Hg           2009010100   2009010101     -
# ======= POPs ===============================================================
  geosfp   4x5         -      POPs         2013070100   2013070101     -
  merra2   4x5         -      POPs         2013070100   2013070101     -
  merra    4x5         -      POPs         2006070100   2006070101     -
  geos5    4x5         -      POPs         2006070100   2006070101     -
  geos4    4x5         -      POPs         2006070100   2006070101     -
  gcap     4x5         -      POPs         2005070100   2005070101     -
# ======= Methane ============================================================
  geosfp   4x5         -      CH4          2013070100   2013070101     -
  merra2   4x5         -      CH4          2013070100   2013070101     -
  merra    4x5         -      CH4          2006070100   2006070101     -
  geos5    4x5         -      CH4          2006070100   2006070101     -
  geos4    4x5         -      CH4          2006070100   2006070101     -
# ======= Tagged O3 ==========================================================
  geosfp   4x5         -      tagO3        2013070100   2013070101     -
  merra2   4x5         -      tagO3        2013070100   2013070101     -
  merra    4x5         -      tagO3        2006070100   2006070101     -
  geos5    4x5         -      tagO3        2006070100   2006070101     -
  geos4    4x5         -      tagO3        2006070100   2006070101     -
##======= Tagged CO ==========================================================
#  geosfp   4x5         -      tagCO        2013070100   2013070101    -
#  merra    4x5         -      tagCO        2006070100   2006070101    -
#  geos5    4x5         -      tagCO        2006070100   2006070101    -
# ======= Offline Aerosols ===================================================
  geosfp   4x5         -      aerosol      2013070100   2013070101     - 
  merra    4x5         -      aerosol      2006070100   2006070101     -
  geos5    4x5         -      aerosol      2006070100   2006070101     -
  geos4    4x5         -      aerosol      2006070100   2006070101     -
# ======= Tropchem ===========================================================
  geosfp   4x5         -      tropchem     2013070100   2013070101     -
  merra    4x5         -      tropchem     2006070100   2006070101     -
  geos5    4x5         -      tropchem     2006070100   2006070101     -
  geos4    4x5         -      tropchem     2006070100   2006070101     -
# gcap     4x5         -      tropchem     2005070100   2005070101     -
# ======= SOA (w/o SVPOA) ====================================================
  geosfp   4x5         -      soa          2013070100   2013070101     -
  merra    4x5         -      soa          2006070100   2006070101     -
  geos5    4x5         -      soa          2006070100   2006070101     -
# ======= SOA (w/ SVPOA) =====================================================
  geosfp   4x5         -      soa_svpoa    2013070100   2013070101     -
  merra    4x5         -      soa_svpoa    2006070100   2006070101     -
  geos5    4x5         -      soa_svpoa    2006070100   2006070101     -
# ======= Acid uptake on dust ================================================
  geosfp   4x5         -      aciduptake   2013070100   2013070101     -
# ======= Marine POA =========================================================
  geosfp   4x5         -      marinePOA    2013070100   2013070101     -
# ======= TOMAS aerosol microphysics =========================================
  geosfp   4x5         -      TOMAS40      2013070100   2013070101     -
  geos5    4x5         -      TOMAS40      2006070100   2006070101     -
# ======= UCX strat-trop chemistry ===========================================
  geosfp   4x5         -      UCX          2013070100   2013070101     -
  geos5    4x5         -      UCX          2006070100   2006070101     -
# ======= RRTMG online radiative transfer ====================================
  geosfp   4x5         -      RRTMG        2013070100   2013070102     -
  merra    4x5         -      RRTMG        2006070100   2006070102     -
  geos5    4x5         -      RRTMG        2006070100   2006070102     -
 !END OF RUNS:
#EOP
#------------------------------------------------------------------------------
