A 2x25_APM run directory does not exist. One can be created by modifying the
4x5_APM run directory.

20 Jun 2019
GEOS-Chem Support Team
geos-chem-support@g.harvard.edu