A 2x25_TOMAS15 run directory does not exist. One can be created by modifying the
4x5_TOMAS15 run directory.

13 Jul 2016
GEOS-Chem Support Team
geos-chem-support@as.harvard.edu