A 4x5_CO2 run directory does not exist. One can be created by modifying the
2x25_CO2 run directory.

13 Jul 2016
GEOS-Chem Support Team
geos-chem-support@as.harvard.edu
