#------------------------------------------------------------------------------
#                  Harvard-NASA Emissions Component (HEMCO)                   !
#------------------------------------------------------------------------------
#BOP
#
# !MODULE: HEMCO_Config.rc
#
# !DESCRIPTION: Contains configuration information for HEMCO. Define the
#  emissions inventories and corresponding file paths here. Entire 
#  configuration files can be inserted into this configuration file with
#  an '>>>include' statement, e.g. '>>>include HEMCO\_Config\_test.rc' 
#  The settings of include-files will be ignored.
#\\
#\\
# !REMARKS:
#  Customized for the offline aerosol simulation. 
#
#  The following tokens will be replaced:
#  (1) ROOT    : Filepath to HEMCO root directory
#  (2) CFDIR   : Filepath to directory of this configuration file. 
#  (3) MET     : Met field type (from G-C compilation command)
#  (4) GRID    : Horizontal grid type (from G-C compilation command)
#  (5) SIM     : Simulation type (from G-C compilation command)
#  (6) NEST    : Nested-grid type (CH, EU, NA, SE)
#  (7) LEVRED  : String w/ the # of levels in the reduced GEOS-Chem grid
#                as used in some filenames (e.g. "23L", "30L", "47L")
#  (8) LEVFULL : String w/ the # of levels in the full GEOS-Chem grid
#                as used in some filenames (e.g. "55L", "72L")
# 
# !REVISION HISTORY: 
#  Navigate to your unit tester directory and type 'gitk' at the prompt
#  to browse the revision history.
#EOP
#------------------------------------------------------------------------------
#BOC
###############################################################################
### BEGIN SECTION SETTINGS
###############################################################################

ROOT:                        {ROOT}
Logfile:                     HEMCO.log
DiagnPrefix:                 HEMCO_diagnostics
DiagnFreq:                   End
Wildcard:                    *
Separator:                   /
Unit tolerance:              1
Negative values:             0
Only unitless scale factors: false
Verbose:                     {VERBOSE}
Warnings:                    {WARNINGS}

### END SECTION SETTINGS ###

###############################################################################
### BEGIN SECTION EXTENSION SWITCHES
###############################################################################
###
### This section lists all emission extensions available to HEMCO and whether 
### they shall be used or not. Extension 'base' must have extension number 
### zero, all other extension numbers can be freely chosen. Data fields in 
### section 'base emissions' will only be read if the corresponding extension 
### (identified by ExtNr) is enabled. Similarly, fields grouped into data 
### collections ('(((CollectionName', ')))CollectionName') are only considered
### if the corresponding data collection is enabled in this section. Data
### listed within a disabled extension are always ignored, even if they are
### grouped in an enabled collection (e.g. GFED-4 data will never be considered
### if the GFED extension is disabled, even if the GFED4 option is set to true).
###
### It is possible to define collections that are only evaluated if a
### collection name is *not* enabled. This is achieved by leading the
### collection name with '.not.', e.g. '(((.not.FINN_daily' ...
### '))).not.FINN_daily' for FINN monthly data (only used if daily data is
### not being used). 
###
### The ExtNr provided in this section must match with the ExtNr assigned to
### the data listed in the base emissions sections. Otherwise, the listed 
### files won't be read!
###
### NOTES:
### --> You can only select one biomass burning option (GFED, QFED, FINN).
###
### --> BOND_BIOMASS must be set to false if GFED, QFED, or FINN is enabled.
###
### --> The biomass burning SVOC scale factors (Scaling_POG1, Scaling POG2)
###     should be the same as for the biofuel and anthro sources (POGSCAL). 
###
### --> The NAP scale factor is determined as in the original simulation:
###     Obtain NAP emissions using scale factor from Hays 2002 ES&T 
###     (0.0253 g NAP/kg DM) and Andreae and Merlet 2001 GBC (92 g CO/kg DM)
###
### --> You can select either NEI2011_HOURLY or NEI2011_MONMEAN but not both.
###     The same goes for NEI2011_SHIP_HOURLY and NEI2011_SHIP_MONMEAN.
###############################################################################
# ExtNr ExtName                on/off  Species
0       Base                   : on    *
    --> HEMCO_RESTART          :       true
    --> AEIC                   :       true
    --> BIOFUEL                :       true
    --> BOND                   :       true
    --> BRAVO                  :       true
    --> APEI                   :       true
    --> EDGARv43               :       false
    --> HTAP                   :       false
    --> CEDS                   :       true
    --> EMEP                   :       true
    --> GEIA                   :       true
    --> NEI2011_HOURLY         :       false
    --> NEI2011_MONMEAN        :       true
    --> MIX                    :       true
    --> STREETS                :       false
    --> DICE_Africa            :       true 
    --> TRASH                  :       true
    --> RCP_3PD                :       false 
    --> RCP_45                 :       false
    --> RCP_60                 :       false
    --> RCP_85                 :       false
    --> QFED2                  :       false
    --> SHIP                   :       true
    --> EMEP_SHIP              :       true
    --> NEI2011_SHIP_HOURLY    :       false
    --> NEI2011_SHIP_MONMEAN   :       false
### NOTE: For now use the prior volcano emissions.  The AeroCom
### extension will die if it can't find a file for every day of the
### year, and the data set ends in September 2012.
    --> VOLCANO                :       true
# -----------------------------------------------------------------------------
100     Custom                 : off   - 
101     SeaFlux                : on    DMS
105     DustDead               : on    DST1/DST2/DST3/DST4 
106     DustGinoux             : off   DST1/DST2/DST3/DST4
107     SeaSalt                : on    SALA/SALC
    --> SALA lower radius      :       0.01 
    --> SALA upper radius      :       0.5
    --> SALC lower radius      :       0.5
    --> SALC upper radius      :       8.0
    --> Emit Br2               :       false  
    --> Br2 scaling            :       1.0 
108     MEGAN                  : on    ISOP/ACET/PRPE/C2H4/ALD2/EOH/SOAP/SOAS
    --> Isoprene scaling       :       1.0 
    --> CO2 inhibition         :       true
    --> CO2 conc (ppmv)        :       390.0
    --> Isoprene to SOAP       :       0.015
    --> Isoprene to SOAS       :       0.015
#3% mass yield from isoprene to SOA
109     MEGAN_Mono             : on    CO/MTPA/MTPO/LIMO/SESQ
    --> Monoterp to SOAP       :       0.050
    --> Monoterp to SOAS       :       0.050
#10% mass yield from monoterpenes to SOA
    --> Othrterp to SOAP       :       0.050
    --> Othrterp to SOAS       :       0.050
#10% mass yield from other terpenes to SOA
111     GFED                   : on    NO/CO/ALK4/ACET/MEK/ALD2/PRPE/C3H8/CH2O/C2H6/SO2/NH3/BCPO/BCPI/OCPO/OCPI/POG1/POG2/MTPA/BENZ/TOLU/XYLE/NAP/EOH/SOAP
    --> GFED4                  :       true
    --> GFED_daily             :       false
    --> GFED_3hourly           :       false
    --> Scaling_CO             :       1.05
    --> Scaling_POG1           :       1.27
    --> Scaling_POG2           :       1.27
    --> Scaling_NAP            :       2.75e-4
    --> hydrophilic BC         :       0.2
    --> hydrophilic OC         :       0.5
    --> fraction POG1          :       0.49
    --> CO to SOAP             :       0.013
#see the note near scale factor 281 for the source of this emis factor
114     FINN                   : off   NO/CO/ALK4/ACET/MEK/ALD2/PRPE/C3H8/CH2O/C2H6/SO2/NH3/BCPI/BCPO/OCPI/OCPO/GLYC/HAC/SOAP
    --> FINN_daily             :       false
    --> Scaling_CO             :       1.0
    --> Scaling_SOAP           :       0.013
    --> hydrophilic BC         :       0.2
    --> hydrophilic OC         :       0.5
115     DustAlk                : off   DSTAL1/DSTAL2/DSTAL3/DSTAL4
116     MarinePOA              : off   MOPO/MOPI 
### NOTE: For now deactivate aerocom volcano until we can fix it
### to deal with the missing data after September 2012.
117     AeroCom_Volcano        : off   SO2
    --> Volcano_Source         :       OMI
    --> AeroCom_Table          :       $ROOT/VOLCANO/v2018-03/$YYYY/so2_volcanic_emissions_Carns.$YYYY$MM$DD.rc
### END SECTION EXTENSION SWITCHES ###

###############################################################################
### BEGIN SECTION BASE EMISSIONS 
###############################################################################

# ExtNr	Name sourceFile	sourceVar sourceTime C/R/E SrcDim SrcUnit Species ScalIDs Cat Hier

#==============================================================================
# --- MACCity ---
#==============================================================================
#0 MACCITY_NO $ROOT/MACCITY/v2014-07/MACCity_anthro_NOx_2000-2010_16080.nc MACCity 2000/1/1/0 C xy kg/m2/s NO - 1 2
#0 MACCITY_CO $ROOT/MACCITY/v2014-07/MACCity_anthro_CO_2000-2010_16080.nc  MACCity 2000/1/1/0 C xy kg/m2/s CO - 1 2 

#==============================================================================
# --- GEIA ---
#
# NOTE: These emissions are old and are slated to be replaced soon.
#==============================================================================
(((GEIA

(((.not.CEDS.or.EDGARv43

# GEIA NH3 anthro (skip if CEDS or EDGARv43 is on)
0 GEIA_NH3_ANTH $ROOT/NH3/v2014-07/NH3_geos.4x5.nc         NH3_ANTH     1990/1-12/1/0 C xy  kg/m2/s NH3 - 1 1 

# GEIA NH3 biofuel (skip if CEDS or EDGARv43 is on)
(((BIOFUEL
0 GEIA_NH3_BIOF $ROOT/NH3/v2014-07/NH3_biofuel.geos.1x1.nc NH3_BIOFUEL  1998/1-12/1/0 C xy  kg/m2/s NH3 - 2 1
)))BIOFUEL

))).not.CEDS.or.EDGARv43

# GEIA NH3 natural source
0 GEIA_NH3_NATU $ROOT/NH3/v2014-07/NH3_geos.4x5.nc         NH3_NATU     1990/1-12/1/0 C xy  kg/m2/s NH3 - 3 1

# GEIA NH3 from arctic seabirds
0 SEABIRD_NH3   $ROOT/NH3/v2018-04/NH3_Arctic_seabirds.nc  NH3_SEABIRDS 1990/1-12/1/0 C xy  kg/m2/s NH3 - 30 1
)))GEIA

#==============================================================================
# --- EDGAR v4.3 ---
#
# %%% NOTE: Use EDGAR for the global base emissions instead of GEIA %%%
#
# Aviation and shipping emissions are not included
# Do not include the following sources (meng,3/6/2014)
#  - Soil emissions of NOx (SOL). These emissions are calculated via the 
#    SoilNOx extension.
#  - Open biomass burning (AWB). These emissions are obtained from
#    GFED or FINN.
#==============================================================================
(((EDGARv43
0  EDGAR_SOAP_POW $ROOT/EDGARv43/v2016-11/EDGAR_v43.CO.POW.0.1x0.1.nc  emi_co  1970-2010/1/1/0 C xy kg/m2/s SOAP 1201/26/52/280  1/2 2
0  EDGAR_SOAP_ENG $ROOT/EDGARv43/v2016-11/EDGAR_v43.CO.ENG.0.1x0.1.nc  emi_co  1970-2010/1/1/0 C xy kg/m2/s SOAP 1202/26/52/280  1/2 2
0  EDGAR_SOAP_IND $ROOT/EDGARv43/v2016-11/EDGAR_v43.CO.IND.0.1x0.1.nc  emi_co  1970-2010/1/1/0 C xy kg/m2/s SOAP 1203/26/52/280  1/2 2
0  EDGAR_SOAP_TRO $ROOT/EDGARv43/v2016-11/EDGAR_v43.CO.TRO.0.1x0.1.nc  emi_co  1970-2010/1/1/0 C xy kg/m2/s SOAP 1204/26/52/280  1/2 2
0  EDGAR_SOAP_TNG $ROOT/EDGARv43/v2016-11/EDGAR_v43.CO.TNG.0.1x0.1.nc  emi_co  1970-2010/1/1/0 C xy kg/m2/s SOAP 1205/26/52/280  1/2 2
0  EDGAR_SOAP_RCO $ROOT/EDGARv43/v2016-11/EDGAR_v43.CO.RCO.0.1x0.1.nc  emi_co  1970-2010/1/1/0 C xy kg/m2/s SOAP 1206/26/52/280  1/2 2
0  EDGAR_SOAP_PPA $ROOT/EDGARv43/v2016-11/EDGAR_v43.CO.PPA.0.1x0.1.nc  emi_co  1970-2010/1/1/0 C xy kg/m2/s SOAP 1207/26/52/280  1/2 2
#0 EDGAR_SOAP_AWB $ROOT/EDGARv43/v2016-11/EDGAR_v43.CO.AWB.0.1x0.1.nc  emi_co  1970-2010/1/1/0 C xy kg/m2/s SOAP 1209/26/52/280  1/2 2
0  EDGAR_SOAP_SWD $ROOT/EDGARv43/v2016-11/EDGAR_v43.CO.SWD.0.1x0.1.nc  emi_co  1970-2010/1/1/0 C xy kg/m2/s SOAP 1211/26/52/280  1/2 2
0  EDGAR_NH3_POW  $ROOT/EDGARv43/v2016-11/EDGAR_v43.NH3.POW.0.1x0.1.nc emi_nh3 1970-2010/1/1/0 C xy kg/m2/s NH3  1201            1/2 2
0  EDGAR_NH3_ENG  $ROOT/EDGARv43/v2016-11/EDGAR_v43.NH3.ENG.0.1x0.1.nc emi_nh3 1970-2010/1/1/0 C xy kg/m2/s NH3  1202            1/2 2
0  EDGAR_NH3_IND  $ROOT/EDGARv43/v2016-11/EDGAR_v43.NH3.IND.0.1x0.1.nc emi_nh3 1970-2010/1/1/0 C xy kg/m2/s NH3  1203            1/2 2
0  EDGAR_NH3_TRO  $ROOT/EDGARv43/v2016-11/EDGAR_v43.NH3.TRO.0.1x0.1.nc emi_nh3 1970-2010/1/1/0 C xy kg/m2/s NH3  1204            1/2 2
0  EDGAR_NH3_TNG  $ROOT/EDGARv43/v2016-11/EDGAR_v43.NH3.TNG.0.1x0.1.nc emi_nh3 1970-2010/1/1/0 C xy kg/m2/s NH3  1205            1/2 2
0  EDGAR_NH3_RCO  $ROOT/EDGARv43/v2016-11/EDGAR_v43.NH3.RCO.0.1x0.1.nc emi_nh3 1970-2010/1/1/0 C xy kg/m2/s NH3  1206            1/2 2
0  EDGAR_NH3_PPA  $ROOT/EDGARv43/v2016-11/EDGAR_v43.NH3.PPA.0.1x0.1.nc emi_nh3 1970-2010/1/1/0 C xy kg/m2/s NH3  1207            1/2 2
0  EDGAR_NH3_AGR  $ROOT/EDGARv43/v2016-11/EDGAR_v43.NH3.AGR.0.1x0.1.nc emi_nh3 1970-2010/1/1/0 C xy kg/m2/s NH3  1208            1/2 2
#0 EDGAR_NH3_AWB  $ROOT/EDGARv43/v2016-11/EDGAR_v43.NH3.AWB.0.1x0.1.nc emi_nh3 1970-2010/1/1/0 C xy kg/m2/s NH3  1209            1/2 2
0  EDGAR_NH3_SOL  $ROOT/EDGARv43/v2016-11/EDGAR_v43.NH3.SOL.0.1x0.1.nc emi_nh3 1970-2010/1/1/0 C xy kg/m2/s NH3  1210            1/2 2
0  EDGAR_NH3_SWD  $ROOT/EDGARv43/v2016-11/EDGAR_v43.NH3.SWD.0.1x0.1.nc emi_nh3 1970-2010/1/1/0 C xy kg/m2/s NH3  1211            1/2 2
0  EDGAR_OCPI_POW $ROOT/EDGARv43/v2016-11/EDGAR_v43.OC.POW.0.1x0.1.nc  emi_oc  1970-2010/1/1/0 C xy kg/m2/s OCPI 1201/72         1/2 2
0  EDGAR_OCPO_POW -                                                    -       -               - -  -       OCPO 1201/73         1/2 2
0  EDGAR_POG1_POW -                                                    -       -               - -  -       POG1 1201/74/76      1/2 2
0  EDGAR_POG2_POW -                                                    -       -               - -  -       POG2 1201/74/77      1/2 2
0  EDGAR_OCPI_ENG $ROOT/EDGARv43/v2016-11/EDGAR_v43.OC.ENG.0.1x0.1.nc  emi_oc  1970-2010/1/1/0 C xy kg/m2/s OCPI 1202/72         1/2 2
0  EDGAR_OCPO_ENG -                                                    -       -               - -  -       OCPO 1202/73         1/2 2
0  EDGAR_POG1_ENG -                                                    -       -               - -  -       POG1 1202/74/76      1/2 2
0  EDGAR_POG2_ENG -                                                    -       -               - -  -       POG2 1202/74/77      1/2 2
0  EDGAR_OCPI_IND $ROOT/EDGARv43/v2016-11/EDGAR_v43.OC.IND.0.1x0.1.nc  emi_oc  1970-2010/1/1/0 C xy kg/m2/s OCPI 1203/72         1/2 2
0  EDGAR_OCPO_IND -                                                    -       -               - -  -       OCPO 1203/73         1/2 2
0  EDGAR_POG1_IND -                                                    -       -               - -  -       POG1 1203/74/76      1/2 2
0  EDGAR_POG2_IND -                                                    -       -               - -  -       POG2 1203/74/77      1/2 2
0  EDGAR_OCPI_TRO $ROOT/EDGARv43/v2016-11/EDGAR_v43.OC.TRO.0.1x0.1.nc  emi_oc  1970-2010/1/1/0 C xy kg/m2/s OCPI 1204/72         1/2 2
0  EDGAR_OCPO_TRO -                                                    -       -               - -  -       OCPO 1204/73         1/2 2
0  EDGAR_POG1_TRO -                                                    -       -               - -  -       POG1 1204/74/76      1/2 2
0  EDGAR_POG2_TRO -                                                    -       -               - -  -       POG2 1204/74/77      1/2 2
0  EDGAR_OCPI_TNG $ROOT/EDGARv43/v2016-11/EDGAR_v43.OC.TNG.0.1x0.1.nc  emi_oc  1970-2010/1/1/0 C xy kg/m2/s OCPI 1205/72         1/2 2
0  EDGAR_OCPO_TNG -                                                    -       -               - -  -       OCPO 1205/73         1/2 2
0  EDGAR_POG1_TNG -                                                    -       -               - -  -       POG1 1205/74/76      1/2 2
0  EDGAR_POG2_TNG -                                                    -       -               - -  -       POG2 1205/74/77      1/2 2
0  EDGAR_OCPI_RCO $ROOT/EDGARv43/v2016-11/EDGAR_v43.OC.RCO.0.1x0.1.nc  emi_oc  1970-2010/1/1/0 C xy kg/m2/s OCPI 1206/72         1/2 2
0  EDGAR_OCPO_RCO -                                                    -       -               - -  -       OCPO 1206/73         1/2 2
0  EDGAR_POG1_RCO -                                                    -       -               - -  -       POG1 1206/74/76      1/2 2
0  EDGAR_POG2_RCO -                                                    -       -               - -  -       POG2 1206/74/77      1/2 2
#0 EDGAR_OCPI_AWB $ROOT/EDGARv43/v2016-11/EDGAR_v43.OC.AWB.0.1x0.1.nc  emi_oc  1970-2010/1/1/0 C xy kg/m2/s OCPI 1209/72         1/2 2
#0 EDGAR_OCPO_AWB -                                                    -       -               - -  -       OCPO 1209/73         1/2 2
#0 EDGAR_POG1_AWB -                                                    -       -               - -  -       POG1 1209/74/76      1/2 2
#0 EDGAR_POG2_AWB -                                                    -       -               - -  -       POG2 1209/74/77      1/2 2
0  EDGAR_OCPI_SWD $ROOT/EDGARv43/v2016-11/EDGAR_v43.OC.SWD.0.1x0.1.nc  emi_oc  1970-2010/1/1/0 C xy kg/m2/s OCPI 1211/72         1/2 2
0  EDGAR_OCPO_SWD -                                                    -       -               - -  -       OCPO 1211/73         1/2 2
0  EDGAR_POG1_SWD -                                                    -       -               - -  -       POG1 1211/74/76      1/2 2
0  EDGAR_POG2_SWD -                                                    -       -               - -  -       POG2 1211/74/77      1/2 2
0  EDGAR_OCPI_FFF $ROOT/EDGARv43/v2016-11/EDGAR_v43.OC.FFF.0.1x0.1.nc  emi_oc  1970-2010/1/1/0 C xy kg/m2/s OCPI 1212/72         1/2 2
0  EDGAR_OCPO_FFF -                                                    -       -               - -  -       OCPO 1212/73         1/2 2
0  EDGAR_POG1_FFF -                                                    -       -               - -  -       POG1 1212/74/76      1/2 2
0  EDGAR_POG2_FFF -                                                    -       -               - -  -       POG2 1212/74/77      1/2 2
0  EDGAR_SO2_POW  $ROOT/EDGARv43/v2016-11/EDGAR_v43.SO2.POW.0.1x0.1.nc emi_so2 1970-2010/1/1/0 C xy kg/m2/s SO2  1201            1/2 2
0  EDGAR_SO4_POW  -                                                    -       -               - -  -       SO4  1201/63         1/2 2
0  EDGAR_pFe_POW  -                                                    -       -               - -  -       pFe  1201/66         1/2 2
0  EDGAR_SO2_ENG  $ROOT/EDGARv43/v2016-11/EDGAR_v43.SO2.ENG.0.1x0.1.nc emi_so2 1970-2010/1/1/0 C xy kg/m2/s SO2  1202            1/2 2
0  EDGAR_SO4_ENG  -                                                    -       -               - -  -       SO4  1202/63         1/2 2
0  EDGAR_pFe_ENG  -                                                    -       -               - -  -       pFe  1202/66         1/2 2
0  EDGAR_SO2_IND  $ROOT/EDGARv43/v2016-11/EDGAR_v43.SO2.IND.0.1x0.1.nc emi_so2 1970-2010/1/1/0 C xy kg/m2/s SO2  1203            1/2 2
0  EDGAR_SO4_IND  -                                                    -       -               - -  -       SO4  1203/63         1/2 2
0  EDGAR_pFe_IND  -                                                    -       -               - -  -       pFe  1203/66         1/2 2
0  EDGAR_SO2_TRO  $ROOT/EDGARv43/v2016-11/EDGAR_v43.SO2.TRO.0.1x0.1.nc emi_so2 1970-2010/1/1/0 C xy kg/m2/s SO2  1204            1/2 2
0  EDGAR_SO4_TRO  -                                                    -       -               - -  -       SO4  1204/63         1/2 2
0  EDGAR_pFe_TRO  -                                                    -       -               - -  -       pFe  1204/66         1/2 2
0  EDGAR_SO2_TNG  $ROOT/EDGARv43/v2016-11/EDGAR_v43.SO2.TNG.0.1x0.1.nc emi_so2 1970-2010/1/1/0 C xy kg/m2/s SO2  1205            1/2 2
0  EDGAR_SO4_TNG  -                                                    -       -               - -  -       SO4  1205/63         1/2 2
0  EDGAR_pFe_TNG  -                                                    -       -               - -  -       pFe  1205/66         1/2 2
0  EDGAR_SO2_RCO  $ROOT/EDGARv43/v2016-11/EDGAR_v43.SO2.RCO.0.1x0.1.nc emi_so2 1970-2010/1/1/0 C xy kg/m2/s SO2  1206            1/2 2
0  EDGAR_SO4_RCO  -                                                    -       -               - -  -       SO4  1206/63         1/2 2
0  EDGAR_pFe_RCO  -                                                    -       -               - -  -       pFe  1206/66         1/2 2
0  EDGAR_SO2_PPA  $ROOT/EDGARv43/v2016-11/EDGAR_v43.SO2.PPA.0.1x0.1.nc emi_so2 1970-2010/1/1/0 C xy kg/m2/s SO2  1207            1/2 2
0  EDGAR_SO4_PPA  -                                                    -       -               - -  -       SO4  1207/63         1/2 2
0  EDGAR_pFe_PPA  -                                                    -       -               - -  -       pFe  1207/66         1/2 2
#0 EDGAR_SO2_AWB  $ROOT/EDGARv43/v2016-11/EDGAR_v43.SO2.AWB.0.1x0.1.nc emi_so2 1970-2010/1/1/0 C xy kg/m2/s SO2  1209            1/2 2
#0 EDGAR_SO4_AWB  -                                                    -       -               - -  -       SO4  1209/63         1/2 2
#0 EDGAR_pFe_AWB  -                                                    -       -               - -  -       pFe  1209/66         1/2 2
0  EDGAR_SO2_SWD  $ROOT/EDGARv43/v2016-11/EDGAR_v43.SO2.SWD.0.1x0.1.nc emi_so2 1970-2010/1/1/0 C xy kg/m2/s SO2  1211            1/2 2
0  EDGAR_SO4_SWD  -                                                    -       -               - -  -       SO4  1211/63         1/2 2
0  EDGAR_pFe_SWD  -                                                    -       -               - -  -       pFe  1211/66         1/2 2
0  EDGAR_SO2_FFF  $ROOT/EDGARv43/v2016-11/EDGAR_v43.SO2.FFF.0.1x0.1.nc emi_so2 1970-2010/1/1/0 C xy kg/m2/s SO2  1212            1/2 2
0  EDGAR_SO4_FFF  -                                                    -       -               - -  -       SO4  1212/63         1/2 2
0  EDGAR_pFe_FFF  -                                                    -       -               - -  -       pFe  1212/66         1/2 2

#==============================================================================
# --- NAP ANTHROPOGENIC EMISSIONS: approximate from EDGAR BENZ --- 
#
# NOTE: Although this data comes from EDGAR version 2, we are storing it
# in the EDGARv42 data path for convenience.  That way you do not need to
# download the older EDGAR data directory, in order to save disk space.
#==============================================================================
0 EDGAR_NAP $ROOT/EDGARv42/v2015-02/VOCv2/EDGAR2_1985_FF_IND.1x1geos.nc BENZ 1985/1/1/0 C xy kgC/m2/s NAP 80/81/82 1 2
)))EDGARv43

#==============================================================================
# --- HTAP v2 ---
#
# %%% NOTE: This is an optional inventory. You may select either EDGAR, CEDS,
# or HTAP for the global base emissions %%%
#
# ==> HTAP ship emissions are listed in the ship emissions section below
# ==> Disable aircraft emissions and get them from AEIC instead.
#==============================================================================
(((HTAP
0 HTAP_SOAP_IND  $ROOT/HTAP/v2015-03/CO/EDGAR_HTAP_CO_INDUSTRY.generic.01x01.nc      emi_co  2008-2010/1-12/1/0 C xy kg/m2/s SOAP 6/28/26/280  1/2 4
0 HTAP_SOAP_POW  $ROOT/HTAP/v2015-03/CO/EDGAR_HTAP_CO_ENERGY.generic.01x01.nc        emi_co  2008-2010/1-12/1/0 C xy kg/m2/s SOAP 6/28/26/280  1/2 4
0 HTAP_SOAP_RES  $ROOT/HTAP/v2015-03/CO/EDGAR_HTAP_CO_RESIDENTIAL.generic.01x01.nc   emi_co  2008-2010/1-12/1/0 C xy kg/m2/s SOAP 6/28/26/280  1/2 4
0 HTAP_SOAP_TRA  $ROOT/HTAP/v2015-03/CO/EDGAR_HTAP_CO_TRANSPORT.generic.01x01.nc     emi_co  2008-2010/1-12/1/0 C xy kg/m2/s SOAP 6/28/26/280  1/2 4
#0 HTAP_SOAP_AIR1 $ROOT/HTAP/v2015-03/CO/EDGAR_HTAP_CO_AIR_LTO.generic.01x01.nc      emi_co  2008-2010/1/1/0    C xy kg/m2/s SOAP 6/28/26/280  1/2 4
#0 HTAP_SOAP_AIR2 $ROOT/HTAP/v2015-03/CO/EDGAR_HTAP_CO_AIR_CDS.generic.01x01.nc      emi_co  2008-2010/1/1/0    C xy kg/m2/s SOAP 6/28/26/280  1/2 4
#0 HTAP_SOAP_AIR3 $ROOT/HTAP/v2015-03/CO/EDGAR_HTAP_CO_AIR_CRS.generic.01x01.nc      emi_co  2008-2010/1/1/0    C xy kg/m2/s SOAP 6/28/26/280  1/2 4
0 HTAP_SO2_IND   $ROOT/HTAP/v2015-03/SO2/EDGAR_HTAP_SO2_INDUSTRY.generic.01x01.nc    emi_so2 2008-2010/1-12/1/0 C xy kg/m2/s SO2  11/29        1/2 4
0 HTAP_SO4_IND   -                                                                   -       -                  - -  -       SO4  11/29/63     1/2 4
0 HTAP_pFe_IND   -                                                                   -       -                  - -  -       pFe  11/29/66     1/2 4
0 HTAP_SO2_POW   $ROOT/HTAP/v2015-03/SO2/EDGAR_HTAP_SO2_ENERGY.generic.01x01.nc      emi_so2 2008-2010/1-12/1/0 C xy kg/m2/s SO2  11/29        1/2 4
0 HTAP_SO4_POW   -                                                                   -       -                  - -  -       SO4  11/29/63     1/2 4
0 HTAP_pFe_POW   -                                                                   -       -                  - -  -       pFe  11/29/66     1/2 4
0 HTAP_SO2_RES   $ROOT/HTAP/v2015-03/SO2/EDGAR_HTAP_SO2_RESIDENTIAL.generic.01x01.nc emi_so2 2008-2010/1-12/1/0 C xy kg/m2/s SO2  11/29        1/2 4
0 HTAP_SO4_RES   -                                                                   -       -                  - -  -       SO4  11/29/63     1/2 4
0 HTAP_pFe_RES   -                                                                   -       -                  - -  -       pFe  11/29/66     1/2 4
0 HTAP_SO2_TRA   $ROOT/HTAP/v2015-03/SO2/EDGAR_HTAP_SO2_TRANSPORT.generic.01x01.nc   emi_so2 2008-2010/1-12/1/0 C xy kg/m2/s SO2  11/29        1/2 4
0 HTAP_SO4_TRA   -                                                                   -       -                  - -  -       SO4  11/29/63     1/2 4
0 HTAP_pFe_TRA   -                                                                   -       -                  - -  -       pFe  11/29/66     1/2 4
#0 HTAP_SO2_AIR1 $ROOT/HTAP/v2015-03/SO2/EDGAR_HTAP_SO2_AIR_LTO.generic.01x01.nc     emi_so2 2008-2010/1/1/0    C xy kg/m2/s SO2  11/29        1/2 4
#0 HTAP_SO4_AIR1 -                                                                   -       -                  - -  -       SO4  11/29/63     1/2 4
#0 HTAP_pFe_AIR1 -                                                                   -       -                  - -  -       pFe  11/29/66     1/2 4
#0 HTAP_SO2_AIR2 $ROOT/HTAP/v2015-03/SO2/EDGAR_HTAP_SO2_AIR_CDS.generic.01x01.nc     emi_so2 2008-2010/1/1/0    C xy kg/m2/s SO2  11/29        1/2 4
#0 HTAP_SO4_AIR2 -                                                                   -       -                  - -  -       SO4  11/29/63     1/2 4
#0 HTAP_pFe_AIR2 -                                                                   -       -                  - -  -       pFe  11/29/66     1/2 4
#0 HTAP_SO2_AIR3 $ROOT/HTAP/v2015-03/SO2/EDGAR_HTAP_SO2_AIR_CRS.generic.01x01.nc     emi_so2 2008-2010/1/1/0    C xy kg/m2/s SO2  11/29        1/2 4
#0 HTAP_SO4_AIR3 -                                                                   -       -                  - -  -       SO4  11/29/63     1/2 4
#0 HTAP_pFe_AIR3 -                                                                   -       -                  - -  -       pFe  11/29/66     1/2 4
0 HTAP_NH3_IND   $ROOT/HTAP/v2015-03/NH3/EDGAR_HTAP_NH3_INDUSTRY.generic.01x01.nc    emi_nh3 2008-2010/1-12/1/0 C xy kg/m2/s NH3  -            1/2 4
0 HTAP_NH3_POW   $ROOT/HTAP/v2015-03/NH3/EDGAR_HTAP_NH3_ENERGY.generic.01x01.nc      emi_nh3 2008-2010/1-12/1/0 C xy kg/m2/s NH3  -            1/2 4
0 HTAP_NH3_RES   $ROOT/HTAP/v2015-03/NH3/EDGAR_HTAP_NH3_RESIDENTIAL.generic.01x01.nc emi_nh3 2008-2010/1-12/1/0 C xy kg/m2/s NH3  -            1/2 4
0 HTAP_NH3_TRA   $ROOT/HTAP/v2015-03/NH3/EDGAR_HTAP_NH3_TRANSPORT.generic.01x01.nc   emi_nh3 2008-2010/1-12/1/0 C xy kg/m2/s NH3  -            1/2 4
0 HTAP_NH3_AGR   $ROOT/HTAP/v2015-03/NH3/EDGAR_HTAP_NH3_AGRICULTURE.generic.01x01.nc emi_nh3 2008-2010/1-12/1/0 C xy kg/m2/s NH3  -            1/2 4
)))HTAP

#==============================================================================
# --- CEDS ---
#
# %%% NOTE: This is an optional inventory. You may select either EDGAR, CEDS,
# or HTAP for the global base emissions %%%
#
# ==> Do not use CEDS ship emissions for now. They may eventually be listed
#     in the ship emissions section below
#==============================================================================
(((CEDS
0 CEDS_NO_AGR     $ROOT/CEDS/v2018-04/NO-em-anthro_CMIP_CEDS_195001-201412.nc            NO_agr            1950-2014/1-12/1/0 C xy kg/m2/s NO    25  1/2 5
0 CEDS_NO_ENE     $ROOT/CEDS/v2018-04/NO-em-anthro_CMIP_CEDS_195001-201412.nc            NO_ene            1950-2014/1-12/1/0 C xy kg/m2/s NO    25  1/2 5
0 CEDS_NO_IND     $ROOT/CEDS/v2018-04/NO-em-anthro_CMIP_CEDS_195001-201412.nc            NO_ind            1950-2014/1-12/1/0 C xy kg/m2/s NO    25  1/2 5
0 CEDS_NO_TRA     $ROOT/CEDS/v2018-04/NO-em-anthro_CMIP_CEDS_195001-201412.nc            NO_tra            1950-2014/1-12/1/0 C xy kg/m2/s NO    25  1/2 5
0 CEDS_NO_SLV     $ROOT/CEDS/v2018-04/NO-em-anthro_CMIP_CEDS_195001-201412.nc            NO_slv            1950-2014/1-12/1/0 C xy kg/m2/s NO    25  1/2 5
0 CEDS_NO_WST     $ROOT/CEDS/v2018-04/NO-em-anthro_CMIP_CEDS_195001-201412.nc            NO_wst            1950-2014/1-12/1/0 C xy kg/m2/s NO    25  1/2 5
0 CEDS_CO_AGR     $ROOT/CEDS/v2018-04/CO-em-anthro_CMIP_CEDS_195001-201412.nc            CO_agr            1950-2014/1-12/1/0 C xy kg/m2/s CO    26  1/2 5
0 CEDS_CO_ENE     $ROOT/CEDS/v2018-04/CO-em-anthro_CMIP_CEDS_195001-201412.nc            CO_ene            1950-2014/1-12/1/0 C xy kg/m2/s CO    26  1/2 5
0 CEDS_CO_IND     $ROOT/CEDS/v2018-04/CO-em-anthro_CMIP_CEDS_195001-201412.nc            CO_ind            1950-2014/1-12/1/0 C xy kg/m2/s CO    26  1/2 5
0 CEDS_CO_TRA     $ROOT/CEDS/v2018-04/CO-em-anthro_CMIP_CEDS_195001-201412.nc            CO_tra            1950-2014/1-12/1/0 C xy kg/m2/s CO    26  1/2 5
0 CEDS_CO_SLV     $ROOT/CEDS/v2018-04/CO-em-anthro_CMIP_CEDS_195001-201412.nc            CO_slv            1950-2014/1-12/1/0 C xy kg/m2/s CO    26  1/2 5
0 CEDS_CO_WST     $ROOT/CEDS/v2018-04/CO-em-anthro_CMIP_CEDS_195001-201412.nc            CO_wst            1950-2014/1-12/1/0 C xy kg/m2/s CO    26  1/2 5
0 CEDS_SO2_AGR    $ROOT/CEDS/v2018-04/SO2-em-anthro_CMIP_CEDS_195001-201412.nc           SO2_agr           1950-2014/1-12/1/0 C xy kg/m2/s SO2   -   1/2 5
0 CEDS_SO4_AGR    -                                                                      -                 -                  - -  -       SO4   63  1/2 5
0 CEDS_SO2_ENE    $ROOT/CEDS/v2018-04/SO2-em-anthro_CMIP_CEDS_195001-201412.nc           SO2_ene           1950-2014/1-12/1/0 C xy kg/m2/s SO2   -   1/2 5
0 CEDS_SO4_ENE    -                                                                      -                 -                  - -  -       SO4   63  1/2 5
0 CEDS_SO2_IND    $ROOT/CEDS/v2018-04/SO2-em-anthro_CMIP_CEDS_195001-201412.nc           SO2_ind           1950-2014/1-12/1/0 C xy kg/m2/s SO2   -   1/2 5
0 CEDS_SO4_IND    -                                                                      -                 -                  - -  -       SO4   63  1/2 5
0 CEDS_SO2_TRA    $ROOT/CEDS/v2018-04/SO2-em-anthro_CMIP_CEDS_195001-201412.nc           SO2_tra           1950-2014/1-12/1/0 C xy kg/m2/s SO2   -   1/2 5
0 CEDS_SO4_TRA    -                                                                      -                 -                  - -  -       SO4   63  1/2 5
0 CEDS_SO2_SLV    $ROOT/CEDS/v2018-04/SO2-em-anthro_CMIP_CEDS_195001-201412.nc           SO2_slv           1950-2014/1-12/1/0 C xy kg/m2/s SO2   -   1/2 5
0 CEDS_SO4_SLV    -                                                                      -                 -                  - -  -       SO4   63  1/2 5
0 CEDS_SO2_WST    $ROOT/CEDS/v2018-04/SO2-em-anthro_CMIP_CEDS_195001-201412.nc           SO2_wst           1950-2014/1-12/1/0 C xy kg/m2/s SO2   -   1/2 5
0 CEDS_SO4_WST    -                                                                      -                 -                  - -  -       SO4   63  1/2 5
0 CEDS_NH3_AGR    $ROOT/CEDS/v2018-04/NH3-em-anthro_CMIP_CEDS_195001-201412.nc           NH3_agr           1950-2014/1-12/1/0 C xy kg/m2/s NH3   -   1/2 5
0 CEDS_NH3_ENE    $ROOT/CEDS/v2018-04/NH3-em-anthro_CMIP_CEDS_195001-201412.nc           NH3_ene           1950-2014/1-12/1/0 C xy kg/m2/s NH3   -   1/2 5
0 CEDS_NH3_IND    $ROOT/CEDS/v2018-04/NH3-em-anthro_CMIP_CEDS_195001-201412.nc           NH3_ind           1950-2014/1-12/1/0 C xy kg/m2/s NH3   -   1/2 5
0 CEDS_NH3_TRA    $ROOT/CEDS/v2018-04/NH3-em-anthro_CMIP_CEDS_195001-201412.nc           NH3_tra           1950-2014/1-12/1/0 C xy kg/m2/s NH3   -   1/2 5
0 CEDS_NH3_SLV    $ROOT/CEDS/v2018-04/NH3-em-anthro_CMIP_CEDS_195001-201412.nc           NH3_slv           1950-2014/1-12/1/0 C xy kg/m2/s NH3   -   1/2 5
0 CEDS_NH3_WST    $ROOT/CEDS/v2018-04/NH3-em-anthro_CMIP_CEDS_195001-201412.nc           NH3_wst           1950-2014/1-12/1/0 C xy kg/m2/s NH3   -   1/2 5
0 CEDS_BCPI_AGR   $ROOT/CEDS/v2018-04/BC-em-anthro_CMIP_CEDS_195001-201412.nc            BC_agr            1950-2014/1-12/1/0 C xy kg/m2/s BCPI  265 1/2 5
0 CEDS_BCPO_AGR   -                                                                      -                 -                  - -  -       BCPO  266 1/2 5
0 CEDS_BCPI_ENE   $ROOT/CEDS/v2018-04/BC-em-anthro_CMIP_CEDS_195001-201412.nc            BC_ene            1950-2014/1-12/1/0 C xy kg/m2/s BCPI  265 1/2 5
0 CEDS_BCPO_ENE   -                                                                      -                 -                  - -  -       BCPO  266 1/2 5
0 CEDS_BCPI_IND   $ROOT/CEDS/v2018-04/BC-em-anthro_CMIP_CEDS_195001-201412.nc            BC_ind            1950-2014/1-12/1/0 C xy kg/m2/s BCPI  265 1/2 5
0 CEDS_BCPO_IND   -                                                                      -                 -                  - -  -       BCPO  266 1/2 5
0 CEDS_BCPI_TRA   $ROOT/CEDS/v2018-04/BC-em-anthro_CMIP_CEDS_195001-201412.nc            BC_tra            1950-2014/1-12/1/0 C xy kg/m2/s BCPI  265 1/2 5
0 CEDS_BCPO_TRA   -                                                                      -                 -                  - -  -       BCPO  266 1/2 5
0 CEDS_BCPI_SLV   $ROOT/CEDS/v2018-04/BC-em-anthro_CMIP_CEDS_195001-201412.nc            BC_slv            1950-2014/1-12/1/0 C xy kg/m2/s BCPI  265 1/2 5
0 CEDS_BCPO_SLV   -                                                                      -                 -                  - -  -       BCPO  266 1/2 5
0 CEDS_BCPI_WST   $ROOT/CEDS/v2018-04/BC-em-anthro_CMIP_CEDS_195001-201412.nc            BC_wst            1950-2014/1-12/1/0 C xy kg/m2/s BCPI  265 1/2 5
0 CEDS_BCPO_WST   -                                                                      -                 -                  - -  -       BCPO  266 1/2 5
0 CEDS_OCPI_AGR   $ROOT/CEDS/v2018-04/OC-em-anthro_CMIP_CEDS_195001-201412.nc            OC_agr            1950-2014/1-12/1/0 C xy kg/m2/s OCPI  267 1/2 5
0 CEDS_OCPO_AGR   -                                                                      -                 -                  - -  -       OCPO  268 1/2 5
0 CEDS_OCPI_ENE   $ROOT/CEDS/v2018-04/OC-em-anthro_CMIP_CEDS_195001-201412.nc            OC_ene            1950-2014/1-12/1/0 C xy kg/m2/s OCPI  267 1/2 5
0 CEDS_OCPO_ENE   -                                                                      -                 -                  - -  -       OCPO  268 1/2 5
0 CEDS_OCPI_IND   $ROOT/CEDS/v2018-04/OC-em-anthro_CMIP_CEDS_195001-201412.nc            OC_ind            1950-2014/1-12/1/0 C xy kg/m2/s OCPI  267 1/2 5
0 CEDS_OCPO_IND   -                                                                      -                 -                  - -  -       OCPO  268 1/2 5
0 CEDS_OCPI_TRA   $ROOT/CEDS/v2018-04/OC-em-anthro_CMIP_CEDS_195001-201412.nc            OC_tra            1950-2014/1-12/1/0 C xy kg/m2/s OCPI  267 1/2 5
0 CEDS_OCPO_TRA   -                                                                      -                 -                  - -  -       OCPO  268 1/2 5
0 CEDS_OCPI_SLV   $ROOT/CEDS/v2018-04/OC-em-anthro_CMIP_CEDS_195001-201412.nc            OC_slv            1950-2014/1-12/1/0 C xy kg/m2/s OCPI  267 1/2 5
0 CEDS_OCPO_SLV   -                                                                      -                 -                  - -  -       OCPO  268 1/2 5
0 CEDS_OCPI_WST   $ROOT/CEDS/v2018-04/OC-em-anthro_CMIP_CEDS_195001-201412.nc            OC_wst            1950-2014/1-12/1/0 C xy kg/m2/s OCPI  267 1/2 5
0 CEDS_OCPO_WST   -                                                                      -                 -                  - -  -       OCPO  268 1/2 5
# Comment out CO2 for fullchem simulations: CO2 not advected
#0 CEDS_CO2_AGR    $ROOT/CEDS/v2018-04/CO2-em-anthro_CMIP_CEDS_195001-201412.nc           CO2_agr           1950-2014/1-12/1/0 C xy kg/m2/s CO2   -   1/2 5
#0 CEDS_CO2_ENE    $ROOT/CEDS/v2018-04/CO2-em-anthro_CMIP_CEDS_195001-201412.nc           CO2_ene           1950-2014/1-12/1/0 C xy kg/m2/s CO2   -   1/2 5
#0 CEDS_CO2_IND    $ROOT/CEDS/v2018-04/CO2-em-anthro_CMIP_CEDS_195001-201412.nc           CO2_ind           1950-2014/1-12/1/0 C xy kg/m2/s CO2   -   1/2 5
#0 CEDS_CO2_TRA    $ROOT/CEDS/v2018-04/CO2-em-anthro_CMIP_CEDS_195001-201412.nc           CO2_tra           1950-2014/1-12/1/0 C xy kg/m2/s CO2   -   1/2 5
#0 CEDS_CO2_SLV    $ROOT/CEDS/v2018-04/CO2-em-anthro_CMIP_CEDS_195001-201412.nc           CO2_slv           1950-2014/1-12/1/0 C xy kg/m2/s CO2   -   1/2 5
#0 CEDS_CO2_WST    $ROOT/CEDS/v2018-04/CO2-em-anthro_CMIP_CEDS_195001-201412.nc           CO2_wst           1950-2014/1-12/1/0 C xy kg/m2/s CO2   -   1/2 5
# Comment out CH4 for fullchem simulations: do not use CH4 emissions 
#0 CEDS_CH4_AGR    $ROOT/CEDS/v2018-04/CH4-em-anthro_CMIP_CEDS_197001-201412.nc           CH4_agr           1950-2014/1-12/1/0 C xy kg/m2/s CH4   -   1/2 5
#0 CEDS_CH4_ENE    $ROOT/CEDS/v2018-04/CH4-em-anthro_CMIP_CEDS_197001-201412.nc           CH4_ene           1950-2014/1-12/1/0 C xy kg/m2/s CH4   -   1/2 5
#0 CEDS_CH4_IND    $ROOT/CEDS/v2018-04/CH4-em-anthro_CMIP_CEDS_197001-201412.nc           CH4_ind           1950-2014/1-12/1/0 C xy kg/m2/s CH4   -   1/2 5
#0 CEDS_CH4_TRA    $ROOT/CEDS/v2018-04/CH4-em-anthro_CMIP_CEDS_197001-201412.nc           CH4_tra           1950-2014/1-12/1/0 C xy kg/m2/s CH4   -   1/2 5
#0 CEDS_CH4_SLV    $ROOT/CEDS/v2018-04/CH4-em-anthro_CMIP_CEDS_197001-201412.nc           CH4_slv           1950-2014/1-12/1/0 C xy kg/m2/s CH4   -   1/2 5
#0 CEDS_CH4_WST    $ROOT/CEDS/v2018-04/CH4-em-anthro_CMIP_CEDS_197001-201412.nc           CH4_wst           1950-2014/1-12/1/0 C xy kg/m2/s CH4   -   1/2 5
0 CEDS_EOH_AGR    $ROOT/CEDS/v2018-04/EOH-em-anthro_CMIP_CEDS_195001-201412.nc           EOH_agr           1950-2014/1-12/1/0 C xy kg/m2/s EOH   26  1/2 5
0 CEDS_EOH_ENE    $ROOT/CEDS/v2018-04/EOH-em-anthro_CMIP_CEDS_195001-201412.nc           EOH_ene           1950-2014/1-12/1/0 C xy kg/m2/s EOH   26  1/2 5
0 CEDS_EOH_IND    $ROOT/CEDS/v2018-04/EOH-em-anthro_CMIP_CEDS_195001-201412.nc           EOH_ind           1950-2014/1-12/1/0 C xy kg/m2/s EOH   26  1/2 5
0 CEDS_EOH_TRA    $ROOT/CEDS/v2018-04/EOH-em-anthro_CMIP_CEDS_195001-201412.nc           EOH_tra           1950-2014/1-12/1/0 C xy kg/m2/s EOH   26  1/2 5
0 CEDS_EOH_SLV    $ROOT/CEDS/v2018-04/EOH-em-anthro_CMIP_CEDS_195001-201412.nc           EOH_slv           1950-2014/1-12/1/0 C xy kg/m2/s EOH   26  1/2 5
0 CEDS_EOH_WST    $ROOT/CEDS/v2018-04/EOH-em-anthro_CMIP_CEDS_195001-201412.nc           EOH_wst           1950-2014/1-12/1/0 C xy kg/m2/s EOH   26  1/2 5
0 CEDS_C2H6_AGR   $ROOT/CEDS/v2018-04/C2H6-em-anthro_CMIP_CEDS_195001-201412.nc          C2H6_agr          1950-2014/1-12/1/0 C xy kg/m2/s C2H6  26  1/2 5
0 CEDS_C2H6_ENE   $ROOT/CEDS/v2018-04/C2H6-em-anthro_CMIP_CEDS_195001-201412.nc          C2H6_ene          1950-2014/1-12/1/0 C xy kg/m2/s C2H6  26  1/2 5
0 CEDS_C2H6_IND   $ROOT/CEDS/v2018-04/C2H6-em-anthro_CMIP_CEDS_195001-201412.nc          C2H6_ind          1950-2014/1-12/1/0 C xy kg/m2/s C2H6  26  1/2 5
0 CEDS_C2H6_TRA   $ROOT/CEDS/v2018-04/C2H6-em-anthro_CMIP_CEDS_195001-201412.nc          C2H6_tra          1950-2014/1-12/1/0 C xy kg/m2/s C2H6  26  1/2 5
0 CEDS_C2H6_SLV   $ROOT/CEDS/v2018-04/C2H6-em-anthro_CMIP_CEDS_195001-201412.nc          C2H6_slv          1950-2014/1-12/1/0 C xy kg/m2/s C2H6  26  1/2 5
0 CEDS_C2H6_WST   $ROOT/CEDS/v2018-04/C2H6-em-anthro_CMIP_CEDS_195001-201412.nc          C2H6_wst          1950-2014/1-12/1/0 C xy kg/m2/s C2H6  26  1/2 5
0 CEDS_C3H8_AGR   $ROOT/CEDS/v2018-04/C3H8-em-anthro_CMIP_CEDS_195001-201412.nc          C3H8_agr          1950-2014/1-12/1/0 C xy kg/m2/s C3H8  26  1/2 5
0 CEDS_C3H8_ENE   $ROOT/CEDS/v2018-04/C3H8-em-anthro_CMIP_CEDS_195001-201412.nc          C3H8_ene          1950-2014/1-12/1/0 C xy kg/m2/s C3H8  26  1/2 5
0 CEDS_C3H8_IND   $ROOT/CEDS/v2018-04/C3H8-em-anthro_CMIP_CEDS_195001-201412.nc          C3H8_ind          1950-2014/1-12/1/0 C xy kg/m2/s C3H8  26  1/2 5
0 CEDS_C3H8_TRA   $ROOT/CEDS/v2018-04/C3H8-em-anthro_CMIP_CEDS_195001-201412.nc          C3H8_tra          1950-2014/1-12/1/0 C xy kg/m2/s C3H8  26  1/2 5
0 CEDS_C3H8_SLV   $ROOT/CEDS/v2018-04/C3H8-em-anthro_CMIP_CEDS_195001-201412.nc          C3H8_slv          1950-2014/1-12/1/0 C xy kg/m2/s C3H8  26  1/2 5
0 CEDS_C3H8_WST   $ROOT/CEDS/v2018-04/C3H8-em-anthro_CMIP_CEDS_195001-201412.nc          C3H8_wst          1950-2014/1-12/1/0 C xy kg/m2/s C3H8  26  1/2 5
0 CEDS_C4H10_AGR  $ROOT/CEDS/v2018-04/ALK4_butanes-em-anthro_CMIP_CEDS_195001-201412.nc  ALK4_butanes_agr  1950-2014/1-12/1/0 C xy kg/m2/s ALK4  26  1/2 5
0 CEDS_C4H10_ENE  $ROOT/CEDS/v2018-04/ALK4_butanes-em-anthro_CMIP_CEDS_195001-201412.nc  ALK4_butanes_ene  1950-2014/1-12/1/0 C xy kg/m2/s ALK4  26  1/2 5
0 CEDS_C4H10_IND  $ROOT/CEDS/v2018-04/ALK4_butanes-em-anthro_CMIP_CEDS_195001-201412.nc  ALK4_butanes_ind  1950-2014/1-12/1/0 C xy kg/m2/s ALK4  26  1/2 5
0 CEDS_C4H10_TRA  $ROOT/CEDS/v2018-04/ALK4_butanes-em-anthro_CMIP_CEDS_195001-201412.nc  ALK4_butanes_tra  1950-2014/1-12/1/0 C xy kg/m2/s ALK4  26  1/2 5
0 CEDS_C4H10_SLV  $ROOT/CEDS/v2018-04/ALK4_butanes-em-anthro_CMIP_CEDS_195001-201412.nc  ALK4_butanes_slv  1950-2014/1-12/1/0 C xy kg/m2/s ALK4  26  1/2 5
0 CEDS_C4H10_WST  $ROOT/CEDS/v2018-04/ALK4_butanes-em-anthro_CMIP_CEDS_195001-201412.nc  ALK4_butanes_wst  1950-2014/1-12/1/0 C xy kg/m2/s ALK4  26  1/2 5
0 CEDS_C5H12_AGR  $ROOT/CEDS/v2018-04/ALK4_pentanes-em-anthro_CMIP_CEDS_195001-201412.nc ALK4_pentanes_agr 1950-2014/1-12/1/0 C xy kg/m2/s ALK4  26  1/2 5
0 CEDS_C5H12_ENE  $ROOT/CEDS/v2018-04/ALK4_pentanes-em-anthro_CMIP_CEDS_195001-201412.nc ALK4_pentanes_ene 1950-2014/1-12/1/0 C xy kg/m2/s ALK4  26  1/2 5
0 CEDS_C5H12_IND  $ROOT/CEDS/v2018-04/ALK4_pentanes-em-anthro_CMIP_CEDS_195001-201412.nc ALK4_pentanes_ind 1950-2014/1-12/1/0 C xy kg/m2/s ALK4  26  1/2 5
0 CEDS_C5H12_TRA  $ROOT/CEDS/v2018-04/ALK4_pentanes-em-anthro_CMIP_CEDS_195001-201412.nc ALK4_pentanes_tra 1950-2014/1-12/1/0 C xy kg/m2/s ALK4  26  1/2 5
0 CEDS_C5H12_SLV  $ROOT/CEDS/v2018-04/ALK4_pentanes-em-anthro_CMIP_CEDS_195001-201412.nc ALK4_pentanes_slv 1950-2014/1-12/1/0 C xy kg/m2/s ALK4  26  1/2 5
0 CEDS_C5H12_WST  $ROOT/CEDS/v2018-04/ALK4_pentanes-em-anthro_CMIP_CEDS_195001-201412.nc ALK4_pentanes_wst 1950-2014/1-12/1/0 C xy kg/m2/s ALK4  26  1/2 5
0 CEDS_C6H14_AGR  $ROOT/CEDS/v2018-04/ALK4_hexanes-em-anthro_CMIP_CEDS_195001-201412.nc  ALK4_hexanes_agr  1950-2014/1-12/1/0 C xy kg/m2/s ALK4  26  1/2 5
0 CEDS_C6H14_ENE  $ROOT/CEDS/v2018-04/ALK4_hexanes-em-anthro_CMIP_CEDS_195001-201412.nc  ALK4_hexanes_ene  1950-2014/1-12/1/0 C xy kg/m2/s ALK4  26  1/2 5
0 CEDS_C6H14_IND  $ROOT/CEDS/v2018-04/ALK4_hexanes-em-anthro_CMIP_CEDS_195001-201412.nc  ALK4_hexanes_ind  1950-2014/1-12/1/0 C xy kg/m2/s ALK4  26  1/2 5
0 CEDS_C6H14_TRA  $ROOT/CEDS/v2018-04/ALK4_hexanes-em-anthro_CMIP_CEDS_195001-201412.nc  ALK4_hexanes_tra  1950-2014/1-12/1/0 C xy kg/m2/s ALK4  26  1/2 5
0 CEDS_C6H14_SLV  $ROOT/CEDS/v2018-04/ALK4_hexanes-em-anthro_CMIP_CEDS_195001-201412.nc  ALK4_hexanes_slv  1950-2014/1-12/1/0 C xy kg/m2/s ALK4  26  1/2 5
0 CEDS_C6H14_WST  $ROOT/CEDS/v2018-04/ALK4_hexanes-em-anthro_CMIP_CEDS_195001-201412.nc  ALK4_hexanes_wst  1950-2014/1-12/1/0 C xy kg/m2/s ALK4  26  1/2 5
0 CEDS_C2H4_AGR   $ROOT/CEDS/v2018-04/C2H4-em-anthro_CMIP_CEDS_195001-201412.nc          C2H4_agr          1950-2014/1-12/1/0 C xy kg/m2/s C2H4  26  1/2 5
0 CEDS_C2H4_ENE   $ROOT/CEDS/v2018-04/C2H4-em-anthro_CMIP_CEDS_195001-201412.nc          C2H4_ene          1950-2014/1-12/1/0 C xy kg/m2/s C2H4  26  1/2 5
0 CEDS_C2H4_IND   $ROOT/CEDS/v2018-04/C2H4-em-anthro_CMIP_CEDS_195001-201412.nc          C2H4_ind          1950-2014/1-12/1/0 C xy kg/m2/s C2H4  26  1/2 5
0 CEDS_C2H4_TRA   $ROOT/CEDS/v2018-04/C2H4-em-anthro_CMIP_CEDS_195001-201412.nc          C2H4_tra          1950-2014/1-12/1/0 C xy kg/m2/s C2H4  26  1/2 5
0 CEDS_C2H4_SLV   $ROOT/CEDS/v2018-04/C2H4-em-anthro_CMIP_CEDS_195001-201412.nc          C2H4_slv          1950-2014/1-12/1/0 C xy kg/m2/s C2H4  26  1/2 5
0 CEDS_C2H4_WST   $ROOT/CEDS/v2018-04/C2H4-em-anthro_CMIP_CEDS_195001-201412.nc          C2H4_wst          1950-2014/1-12/1/0 C xy kg/m2/s C2H4  26  1/2 5
0 CEDS_PRPE_AGR   $ROOT/CEDS/v2018-04/PRPE-em-anthro_CMIP_CEDS_195001-201412.nc          PRPE_agr          1950-2014/1-12/1/0 C xy kg/m2/s PRPE  26  1/2 5
0 CEDS_PRPE_ENE   $ROOT/CEDS/v2018-04/PRPE-em-anthro_CMIP_CEDS_195001-201412.nc          PRPE_ene          1950-2014/1-12/1/0 C xy kg/m2/s PRPE  26  1/2 5
0 CEDS_PRPE_IND   $ROOT/CEDS/v2018-04/PRPE-em-anthro_CMIP_CEDS_195001-201412.nc          PRPE_ind          1950-2014/1-12/1/0 C xy kg/m2/s PRPE  26  1/2 5
0 CEDS_PRPE_TRA   $ROOT/CEDS/v2018-04/PRPE-em-anthro_CMIP_CEDS_195001-201412.nc          PRPE_tra          1950-2014/1-12/1/0 C xy kg/m2/s PRPE  26  1/2 5
0 CEDS_PRPE_SLV   $ROOT/CEDS/v2018-04/PRPE-em-anthro_CMIP_CEDS_195001-201412.nc          PRPE_slv          1950-2014/1-12/1/0 C xy kg/m2/s PRPE  26  1/2 5
0 CEDS_PRPE_WST   $ROOT/CEDS/v2018-04/PRPE-em-anthro_CMIP_CEDS_195001-201412.nc          PRPE_wst          1950-2014/1-12/1/0 C xy kg/m2/s PRPE  26  1/2 5
0 CEDS_C2H2_AGR   $ROOT/CEDS/v2018-04/C2H2-em-anthro_CMIP_CEDS_195001-201412.nc          C2H2_agr          1950-2014/1-12/1/0 C xy kg/m2/s C2H2  26  1/2 5
0 CEDS_C2H2_ENE   $ROOT/CEDS/v2018-04/C2H2-em-anthro_CMIP_CEDS_195001-201412.nc          C2H2_ene          1950-2014/1-12/1/0 C xy kg/m2/s C2H2  26  1/2 5
0 CEDS_C2H2_IND   $ROOT/CEDS/v2018-04/C2H2-em-anthro_CMIP_CEDS_195001-201412.nc          C2H2_ind          1950-2014/1-12/1/0 C xy kg/m2/s C2H2  26  1/2 5
0 CEDS_C2H2_TRA   $ROOT/CEDS/v2018-04/C2H2-em-anthro_CMIP_CEDS_195001-201412.nc          C2H2_tra          1950-2014/1-12/1/0 C xy kg/m2/s C2H2  26  1/2 5
0 CEDS_C2H2_SLV   $ROOT/CEDS/v2018-04/C2H2-em-anthro_CMIP_CEDS_195001-201412.nc          C2H2_slv          1950-2014/1-12/1/0 C xy kg/m2/s C2H2  26  1/2 5
0 CEDS_C2H2_WST   $ROOT/CEDS/v2018-04/C2H2-em-anthro_CMIP_CEDS_195001-201412.nc          C2H2_wst          1950-2014/1-12/1/0 C xy kg/m2/s C2H2  26  1/2 5
0 CEDS_BENZ_AGR   $ROOT/CEDS/v2018-04/BENZ-em-anthro_CMIP_CEDS_195001-201412.nc          BENZ_agr          1950-2014/1-12/1/0 C xy kg/m2/s BENZ  26  1/2 5
0 CEDS_BENZ_ENE   $ROOT/CEDS/v2018-04/BENZ-em-anthro_CMIP_CEDS_195001-201412.nc          BENZ_ene          1950-2014/1-12/1/0 C xy kg/m2/s BENZ  26  1/2 5
0 CEDS_BENZ_IND   $ROOT/CEDS/v2018-04/BENZ-em-anthro_CMIP_CEDS_195001-201412.nc          BENZ_ind          1950-2014/1-12/1/0 C xy kg/m2/s BENZ  26  1/2 5
0 CEDS_BENZ_TRA   $ROOT/CEDS/v2018-04/BENZ-em-anthro_CMIP_CEDS_195001-201412.nc          BENZ_tra          1950-2014/1-12/1/0 C xy kg/m2/s BENZ  26  1/2 5
0 CEDS_BENZ_SLV   $ROOT/CEDS/v2018-04/BENZ-em-anthro_CMIP_CEDS_195001-201412.nc          BENZ_slv          1950-2014/1-12/1/0 C xy kg/m2/s BENZ  26  1/2 5
0 CEDS_BENZ_WST   $ROOT/CEDS/v2018-04/BENZ-em-anthro_CMIP_CEDS_195001-201412.nc          BENZ_wst          1950-2014/1-12/1/0 C xy kg/m2/s BENZ  26  1/2 5
0 CEDS_TOLU_AGR   $ROOT/CEDS/v2018-04/TOLU-em-anthro_CMIP_CEDS_195001-201412.nc          TOLU_agr          1950-2014/1-12/1/0 C xy kg/m2/s TOLU  26  1/2 5
0 CEDS_TOLU_ENE   $ROOT/CEDS/v2018-04/TOLU-em-anthro_CMIP_CEDS_195001-201412.nc          TOLU_ene          1950-2014/1-12/1/0 C xy kg/m2/s TOLU  26  1/2 5
0 CEDS_TOLU_IND   $ROOT/CEDS/v2018-04/TOLU-em-anthro_CMIP_CEDS_195001-201412.nc          TOLU_ind          1950-2014/1-12/1/0 C xy kg/m2/s TOLU  26  1/2 5
0 CEDS_TOLU_TRA   $ROOT/CEDS/v2018-04/TOLU-em-anthro_CMIP_CEDS_195001-201412.nc          TOLU_tra          1950-2014/1-12/1/0 C xy kg/m2/s TOLU  26  1/2 5
0 CEDS_TOLU_SLV   $ROOT/CEDS/v2018-04/TOLU-em-anthro_CMIP_CEDS_195001-201412.nc          TOLU_slv          1950-2014/1-12/1/0 C xy kg/m2/s TOLU  26  1/2 5
0 CEDS_TOLU_WST   $ROOT/CEDS/v2018-04/TOLU-em-anthro_CMIP_CEDS_195001-201412.nc          TOLU_wst          1950-2014/1-12/1/0 C xy kg/m2/s TOLU  26  1/2 5
0 CEDS_XYLE_AGR   $ROOT/CEDS/v2018-04/XYLE-em-anthro_CMIP_CEDS_195001-201412.nc          XYLE_agr          1950-2014/1-12/1/0 C xy kg/m2/s XYLE  26  1/2 5
0 CEDS_XYLE_ENE   $ROOT/CEDS/v2018-04/XYLE-em-anthro_CMIP_CEDS_195001-201412.nc          XYLE_ene          1950-2014/1-12/1/0 C xy kg/m2/s XYLE  26  1/2 5
0 CEDS_XYLE_IND   $ROOT/CEDS/v2018-04/XYLE-em-anthro_CMIP_CEDS_195001-201412.nc          XYLE_ind          1950-2014/1-12/1/0 C xy kg/m2/s XYLE  26  1/2 5
0 CEDS_XYLE_TRA   $ROOT/CEDS/v2018-04/XYLE-em-anthro_CMIP_CEDS_195001-201412.nc          XYLE_tra          1950-2014/1-12/1/0 C xy kg/m2/s XYLE  26  1/2 5
0 CEDS_XYLE_SLV   $ROOT/CEDS/v2018-04/XYLE-em-anthro_CMIP_CEDS_195001-201412.nc          XYLE_slv          1950-2014/1-12/1/0 C xy kg/m2/s XYLE  26  1/2 5
0 CEDS_XYLE_WST   $ROOT/CEDS/v2018-04/XYLE-em-anthro_CMIP_CEDS_195001-201412.nc          XYLE_wst          1950-2014/1-12/1/0 C xy kg/m2/s XYLE  26  1/2 5
0 CEDS_CH2O_AGR   $ROOT/CEDS/v2018-04/CH2O-em-anthro_CMIP_CEDS_195001-201412.nc          CH2O_agr          1950-2014/1-12/1/0 C xy kg/m2/s CH2O  26  1/2 5
0 CEDS_CH2O_ENE   $ROOT/CEDS/v2018-04/CH2O-em-anthro_CMIP_CEDS_195001-201412.nc          CH2O_ene          1950-2014/1-12/1/0 C xy kg/m2/s CH2O  26  1/2 5
0 CEDS_CH2O_IND   $ROOT/CEDS/v2018-04/CH2O-em-anthro_CMIP_CEDS_195001-201412.nc          CH2O_ind          1950-2014/1-12/1/0 C xy kg/m2/s CH2O  26  1/2 5
0 CEDS_CH2O_TRA   $ROOT/CEDS/v2018-04/CH2O-em-anthro_CMIP_CEDS_195001-201412.nc          CH2O_tra          1950-2014/1-12/1/0 C xy kg/m2/s CH2O  26  1/2 5
0 CEDS_CH2O_SLV   $ROOT/CEDS/v2018-04/CH2O-em-anthro_CMIP_CEDS_195001-201412.nc          CH2O_slv          1950-2014/1-12/1/0 C xy kg/m2/s CH2O  26  1/2 5
0 CEDS_CH2O_WST   $ROOT/CEDS/v2018-04/CH2O-em-anthro_CMIP_CEDS_195001-201412.nc          CH2O_wst          1950-2014/1-12/1/0 C xy kg/m2/s CH2O  26  1/2 5
0 CEDS_ALD2_AGR   $ROOT/CEDS/v2018-04/ALD2-em-anthro_CMIP_CEDS_195001-201412.nc          ALD2_agr          1950-2014/1-12/1/0 C xy kg/m2/s ALD2  26  1/2 5
0 CEDS_ALD2_ENE   $ROOT/CEDS/v2018-04/ALD2-em-anthro_CMIP_CEDS_195001-201412.nc          ALD2_ene          1950-2014/1-12/1/0 C xy kg/m2/s ALD2  26  1/2 5
0 CEDS_ALD2_IND   $ROOT/CEDS/v2018-04/ALD2-em-anthro_CMIP_CEDS_195001-201412.nc          ALD2_ind          1950-2014/1-12/1/0 C xy kg/m2/s ALD2  26  1/2 5
0 CEDS_ALD2_TRA   $ROOT/CEDS/v2018-04/ALD2-em-anthro_CMIP_CEDS_195001-201412.nc          ALD2_tra          1950-2014/1-12/1/0 C xy kg/m2/s ALD2  26  1/2 5
0 CEDS_ALD2_SLV   $ROOT/CEDS/v2018-04/ALD2-em-anthro_CMIP_CEDS_195001-201412.nc          ALD2_slv          1950-2014/1-12/1/0 C xy kg/m2/s ALD2  26  1/2 5
0 CEDS_ALD2_WST   $ROOT/CEDS/v2018-04/ALD2-em-anthro_CMIP_CEDS_195001-201412.nc          ALD2_wst          1950-2014/1-12/1/0 C xy kg/m2/s ALD2  26  1/2 5
0 CEDS_MEK_AGR    $ROOT/CEDS/v2018-04/MEK-em-anthro_CMIP_CEDS_195001-201412.nc           MEK_agr           1950-2014/1-12/1/0 C xy kg/m2/s MEK   26  1/2 5
0 CEDS_MEK_ENE    $ROOT/CEDS/v2018-04/MEK-em-anthro_CMIP_CEDS_195001-201412.nc           MEK_ene           1950-2014/1-12/1/0 C xy kg/m2/s MEK   26  1/2 5
0 CEDS_MEK_IND    $ROOT/CEDS/v2018-04/MEK-em-anthro_CMIP_CEDS_195001-201412.nc           MEK_ind           1950-2014/1-12/1/0 C xy kg/m2/s MEK   26  1/2 5
0 CEDS_MEK_TRA    $ROOT/CEDS/v2018-04/MEK-em-anthro_CMIP_CEDS_195001-201412.nc           MEK_tra           1950-2014/1-12/1/0 C xy kg/m2/s MEK   26  1/2 5
0 CEDS_MEK_SLV    $ROOT/CEDS/v2018-04/MEK-em-anthro_CMIP_CEDS_195001-201412.nc           MEK_slv           1950-2014/1-12/1/0 C xy kg/m2/s MEK   26  1/2 5
0 CEDS_MEK_WST    $ROOT/CEDS/v2018-04/MEK-em-anthro_CMIP_CEDS_195001-201412.nc           MEK_wst           1950-2014/1-12/1/0 C xy kg/m2/s MEK   26  1/2 5
0 CEDS_HCOOH_AGR  $ROOT/CEDS/v2018-04/HCOOH-em-anthro_CMIP_CEDS_195001-201412.nc         HCOOH_agr         1950-2014/1-12/1/0 C xy kg/m2/s HCOOH 26  1/2 5
0 CEDS_HCOOH_ENE  $ROOT/CEDS/v2018-04/HCOOH-em-anthro_CMIP_CEDS_195001-201412.nc         HCOOH_ene         1950-2014/1-12/1/0 C xy kg/m2/s HCOOH 26  1/2 5
0 CEDS_HCOOH_IND  $ROOT/CEDS/v2018-04/HCOOH-em-anthro_CMIP_CEDS_195001-201412.nc         HCOOH_ind         1950-2014/1-12/1/0 C xy kg/m2/s HCOOH 26  1/2 5
0 CEDS_HCOOH_TRA  $ROOT/CEDS/v2018-04/HCOOH-em-anthro_CMIP_CEDS_195001-201412.nc         HCOOH_tra         1950-2014/1-12/1/0 C xy kg/m2/s HCOOH 26  1/2 5
0 CEDS_HCOOH_SLV  $ROOT/CEDS/v2018-04/HCOOH-em-anthro_CMIP_CEDS_195001-201412.nc         HCOOH_slv         1950-2014/1-12/1/0 C xy kg/m2/s HCOOH 26  1/2 5
0 CEDS_HCOOH_WST  $ROOT/CEDS/v2018-04/HCOOH-em-anthro_CMIP_CEDS_195001-201412.nc         HCOOH_wst         1950-2014/1-12/1/0 C xy kg/m2/s HCOOH 26  1/2 5
)))CEDS

#==============================================================================
# --- BIOFUEL EMISSIONS (Yevich and Logan, 2003) ---
#
# ==> Note that this inventory does not contain emissions over the US!!
#     Add to EDGAR emissions, i.e assign same category and hierarchy as EDGAR!
#     Don't read VOCs that are included in RETRO!!
#
# ==> It turns out that biofuel SO2 emissions in some regions are very 
#     different (up to a factor of 2 for some grid boxes) when using the 
#     high-resolution biofuel field compared to the 4x5 degrees input file. 
#     For backwards consistency, I'd recommend using the 4x5 biofuel file 
#     instead of the 1x1 file.
#        -- Christoph Keller (03 Nov 2014)
#==============================================================================
(((BIOFUEL
0 BIOFUEL_SOAP $ROOT/BIOFUEL/v2014-07/biofuel.geos.4x5.nc BIOFUEL_CO   1985/1/1/0 C xy kg/m2/s SOAP 53/281 2 1
0 BIOFUEL_SO2  -                                          -            -          - -  -       SO2  91     2 1
)))BIOFUEL

#==============================================================================
# --- Wiedinmyer et al. (2014) global trash emissions ---
#==============================================================================
(((TRASH
0 TRASH_SOAP  $ROOT/TrashEmis/v2015-03/TrashBurn_v2_generic.01x01.nc  CO    2008/1/1/0 C xy kg/m2/s  SOAP  280   12 30
0 TRASH_SO2   $ROOT/TrashEmis/v2015-03/TrashBurn_v2_generic.01x01.nc  SO2   2008/1/1/0 C xy kg/m2/s  SO2   78    12 30
0 TRASH_SO4   -                                                       -     -          - -  -        SO4   63    12 30
0 TRASH_pFe   -                                                       -     -          - -  -        pFe   78/66 12 30
0 TRASH_NH3   $ROOT/TrashEmis/v2015-03/TrashBurn_v2_generic.01x01.nc  NH3   2008/1/1/0 C xy kg/m2/s  NH3   -     12 30
0 TRASH_BCPI  $ROOT/TrashEmis/v2015-03/TrashBurn_v2_generic.01x01.nc  BC    2008/1/1/0 C xy kg/m2/s  BCPI  70    12 30
0 TRASH_BCPO  -                                                       -     -          - -  -        BCPO  71    12 30
0 TRASH_OCPI  $ROOT/TrashEmis/v2015-03/TrashBurn_v2_generic.01x01.nc  OC    2008/1/1/0 C xy kg/m2/s  OCPI  72    12 30
0 TRASH_OCPO  -                                                       -     -          - -  -        OCPO  73    12 30
)))TRASH

#==============================================================================
# --- EMEP (Europe) ---
#==============================================================================
(((EMEP
0 EMEP_SOAP $ROOT/EMEP/v2015-03/EMEP.generic.1x1.nc CO   1990-2012/1/1/0 C xy kg/m2/s SOAP 26/33/52/1000/280 1/2 10 
0 EMEP_SO2  $ROOT/EMEP/v2015-03/EMEP.generic.1x1.nc SO2  1990-2012/1/1/0 C xy kg/m2/s SO2  61/35/1000        1/2 10
0 EMEP_SO4  -                                       -    -               - -  -       SO4  64/35/1000        1/2 10
0 EMEP_pFe  -                                       -    -               - -  -        pFe  67/35/1000        1/2 10
0 EMEP_NH3  $ROOT/EMEP/v2015-03/EMEP.generic.1x1.nc NH3  1990-2012/1/1/0 C xy kg/m2/s NH3  34/1000           1/2 10
)))EMEP

#==============================================================================
# --- BRAVO (Mexico) ---
#==============================================================================
(((BRAVO
0 BRAVO_SOAP $ROOT/BRAVO/v2014-07/BRAVO.generic.1x1.nc CO  1999/1/1/0 C xy kg/m2/s SOAP 6/8/26/52/1001/280 1/2 20
0 BRAVO_SO2  $ROOT/BRAVO/v2014-07/BRAVO.generic.1x1.nc SO2 1999/1/1/0 C xy kg/m2/s SO2  11/13/1001         1/2 20
0 BRAVO_SO4  -                                         -   -          - -  -       SO4  11/13/65/1001      1/2 20
0 BRAVO_pFe  -                                         -   -          - -  -       pFe  11/13/68/1001      1/2 20
)))BRAVO

#==============================================================================
# --- APEI (Canada) ---
#==============================================================================
(((APEI
0 APEI_SOAP $ROOT/APEI/v2016-11/APEI.0.1x0.1.nc CO  1989-2014/1/1/0 C xy kg/m2/s CO   26/52/1002/280 1/2 30
0 APEI_SO2  $ROOT/APEI/v2016-11/APEI.0.1x0.1.nc SOx 1989-2014/1/1/0 C xy kg/m2/s SO2  60/1002        1/2 30
0 APEI_SO4  -                                   -   -               - -  -       SO4  60/65/1002     1/2 30
0 APEI_pFe  -                                   -   -               - -  -       pFe  60/68/1002     1/2 30
0 APEI_NH3  $ROOT/APEI/v2016-11/APEI.0.1x0.1.nc NH3 1989-2014/1/1/0 C xy kg/m2/s NH3  1002           1/2 30
0 APEI_BCPI $ROOT/APEI/v2016-11/APEI.0.1x0.1.nc EC  1989-2014/1/1/0 C xy kg/m2/s BCPI 70/1002        1/2 30
0 APEI_BCPO $ROOT/APEI/v2016-11/APEI.0.1x0.1.nc EC  1989-2014/1/1/0 C xy kg/m2/s BCPO 71/1002        1/2 30
0 APEI_OCPI $ROOT/APEI/v2016-11/APEI.0.1x0.1.nc OC  1989-2014/1/1/0 C xy kg/m2/s OCPI 72/1002        1/2 30
0 APEI_OCPO $ROOT/APEI/v2016-11/APEI.0.1x0.1.nc OC  1989-2014/1/1/0 C xy kg/m2/s OCPO 73/1002        1/2 30
0 APEI_POG1 -                                       -    -          - -  -       POG1 74/76/1002     1/2 30
0 APEI_POG2 -                                       -    -          - -  -       POG2 74/77/1002     1/2 30
)))APEI

#==============================================================================
# --- NEI 2005 (USA) ---
#
# NOTE: Need to apply the GEIA_TOD_FOSSIL scale factor (#26)! 
# done for CO, need to check others
#==============================================================================
(((NEI2005
0 NEI2005_SOAP $ROOT/NEI2005/v2014-09/NEI2005.geos.1x1.1L.nc CO   2005/1/1/0 C xy kg/m2/s SOAP 6/26/17/211/230/1005/280 1 35
0 NEI2005_SO2  $ROOT/NEI2005/v2014-09/NEI2005.geos.1x1.1L.nc SO2  2005/1/1/0 C xy kg/m2/s SO2  11/18/218/237/1005       1 35
0 NEI2005_SO4  $ROOT/NEI2005/v2014-09/NEI2005.geos.1x1.1L.nc SO4  2005/1/1/0 C xy kg/m2/s SO4  11/18/219/238/1005       1 35
0 NEI2005_pFe  -                                                -    -          - -  -        pFe  11/18/219/238/1005/69    1 35
0 NEI2005_NH3  $ROOT/NEI2005/v2014-09/NEI2005.geos.1x1.1L.nc NH3  2005/1/1/0 C xy kg/m2/s NH3  242/1005                 1 35
#0 NEI2005_OC  $ROOT/NEI2005/v2014-09/NEI2005.geos.1x1.1L.nc OCPI 2005/1/1/0 C xy kg/m2/s OCPI 222/241/1005             1 35
#0 NEI2005_BC  $ROOT/NEI2005/v2014-09/NEI2005.geos.1x1.1L.nc BCPI 2005/1/1/0 C xy kg/m2/s BCPI 221/240/1005             1 35
)))NEI2005

#==============================================================================
# --- NEI 2011 (USA) ---
#
# Users may use either hourly or monthly mean NEI2011 emissions.
#==============================================================================

#------------------------------------------------
# HOURLY NEI2011
#------------------------------------------------

(((NEI2011_HOURLY
# SURFACE INVENTORY
0 NEI11_SURFACE_SOAP   $ROOT/NEI2011/v2015-03/$MM/NEI11_0.1x0.1_2011$MM$DD.nc          CO       2006-2013/1-12/1-31/* C xy  kg/m2/s  SOAP 252/1007/280 1/2 50
0 NEI11_SURFACE_NH3    $ROOT/NEI2011/v2015-03/$MM/NEI11_0.1x0.1_2011$MM$DD.nc          NH3      2006-2013/1-12/1-31/* C xy  kg/m2/s  NH3  253/1007     1/2 50
0 NEI11_SURFACE_SO2    $ROOT/NEI2011/v2015-03/$MM/NEI11_0.1x0.1_2011$MM$DD.nc          SO2      2006-2013/1-12/1-31/* C xy  kg/m2/s  SO2  255/1007     1/2 50
0 NEI11_SURFACE_SULF   $ROOT/NEI2011/v2015-03/$MM/NEI11_0.1x0.1_2011$MM$DD.nc          SULF     2006-2013/1-12/1-31/* C xy  kg/m2/s  SO2  255/1007     1/2 50
0 NEI11_SURFACE_SO4    $ROOT/NEI2011/v2015-03/$MM/NEI11_0.1x0.1_2011$MM$DD.nc          PSO4     2006-2013/1-12/1-31/* C xy  kg/m2/s  SO4  255/1007     1/2 50
0 NEI11_SURFACE_pFe    -                                                               -        -                     - -   -        pFe  255/1007/69  1/2 50
0 NEI11_SURFACE_BCPI   $ROOT/NEI2011/v2015-03/$MM/NEI11_0.1x0.1_2011$MM$DD.nc          PEC      2006-2013/1-12/1-31/* C xy  kg/m2/s  BCPI 256/1007/265 1/2 50
0 NEI11_SURFACE_BCPO   -                                                               -        -                     - -   -        BCPO 256/1007/266 1/2 50
0 NEI11_SURFACE_OCPI   $ROOT/NEI2011/v2015-03/$MM/NEI11_0.1x0.1_2011$MM$DD.nc          POC      2006-2013/1-12/1-31/* C xy  kg/m2/s  OCPI 257/1007/267 1/2 50
0 NEI11_SURFACE_OCPO   -                                                               -        -                     - -   -        OCPO 257/1007/268 1/2 50

# ELECTRIC GENERATING UNITS (EGUs)
0 NEI11_EGU_SOAP       $ROOT/NEI2011/v2015-03/$MM/NEI11_0.1x0.1_2011$MM$DD_egu.nc      CO       2006-2013/1-12/1-31/* C xyz kg/m2/s  SOAP 252/1007/280 1   50
#0 NEI11_EGU_NH3       $ROOT/NEI2011/v2015-03/$MM/NEI11_0.1x0.1_2011$MM$DD_egu.nc      NH3      2006-2013/1-12/1-31/* C xyz kg/m2/s  NH3  253/1007     1   50
0 NEI11_EGU_SO2        $ROOT/NEI2011/v2015-03/$MM/NEI11_0.1x0.1_2011$MM$DD_egu.nc      SO2      2006-2013/1-12/1-31/* C xyz kg/m2/s  SO2  255/1007     1   50
0 NEI11_EGU_SULF       $ROOT/NEI2011/v2015-03/$MM/NEI11_0.1x0.1_2011$MM$DD_egu.nc      SULF     2006-2013/1-12/1-31/* C xyz kg/m2/s  SO2  255/1007     1   50
0 NEI11_EGU_SO4        $ROOT/NEI2011/v2015-03/$MM/NEI11_0.1x0.1_2011$MM$DD_egu.nc      PSO4     2006-2013/1-12/1-31/* C xyz kg/m2/s  SO4  255/1007     1   50
0 NEI11_EGU_pFe        -                                                               -        -                     - -   -        pFe  255/1007/69  1   50
0 NEI11_EGU_BCPI       $ROOT/NEI2011/v2015-03/$MM/NEI11_0.1x0.1_2011$MM$DD_egu.nc      PEC      2006-2013/1-12/1-31/* C xyz kg/m2/s  BCPI 256/1007/265 1   50
0 NEI11_EGU_BCPO       -                                                               -        -                     - -   -        BCPO 256/1007/266 1   50
0 NEI11_EGU_OCPI       $ROOT/NEI2011/v2015-03/$MM/NEI11_0.1x0.1_2011$MM$DD_egu.nc      POC      2006-2013/1-12/1-31/* C xyz kg/m2/s  OCPI 257/1007/267 1   50
0 NEI11_EGU_OCPO       -                                                               -        -                     - -   -        OCPO 257/1007/268 1   50

# PEAKING ELECTRIC GENERATING UNITS
0 NEI11_EGUPK_SOAP     $ROOT/NEI2011/v2015-03/$MM/NEI11_0.1x0.1_2011$MM$DD_egupk.nc    CO       2006-2013/1-12/1-31/* C xyz kg/m2/s  SOAP 252/1007/280 1   50
#0 NEI11_EGUPK_NH3     $ROOT/NEI2011/v2015-03/$MM/NEI11_0.1x0.1_2011$MM$DD_egupk.nc    NH3      2006-2013/1-12/1-31/* C xyz kg/m2/s  NH3  253/1007     1   50
0 NEI11_EGUPK_SO2      $ROOT/NEI2011/v2015-03/$MM/NEI11_0.1x0.1_2011$MM$DD_egupk.nc    SO2      2006-2013/1-12/1-31/* C xyz kg/m2/s  SO2  255/1007     1   50
0 NEI11_EGUPK_SULF     $ROOT/NEI2011/v2015-03/$MM/NEI11_0.1x0.1_2011$MM$DD_egupk.nc    SULF     2006-2013/1-12/1-31/* C xyz kg/m2/s  SO2  255/1007     1   50
0 NEI11_EGUPK_SO4      $ROOT/NEI2011/v2015-03/$MM/NEI11_0.1x0.1_2011$MM$DD_egupk.nc    PSO4     2006-2013/1-12/1-31/* C xyz kg/m2/s  SO4  255/1007     1   50
0 NEI11_EGUPK_pFe      -                                                               -        -                     - -   -        pFe  255/1007/69  1   50
0 NEI11_EGUPK_BCPI     $ROOT/NEI2011/v2015-03/$MM/NEI11_0.1x0.1_2011$MM$DD_egupk.nc    PEC      2006-2013/1-12/1-31/* C xyz kg/m2/s  BCPI 256/1007/265 1   50
0 NEI11_EGUPK_BCPO     -                                                               -        -                     - -   -        BCPO 256/1007/266 1   50
0 NEI11_EGUPK_OCPI     $ROOT/NEI2011/v2015-03/$MM/NEI11_0.1x0.1_2011$MM$DD_egupk.nc    POC      2006-2013/1-12/1-31/* C xyz kg/m2/s  OCPI 257/1007/267 1   50
0 NEI11_EGUPK_OCPO     -                                                               -        -                     - -   -        OCPO 257/1007/268 1   50

# OIL & GAS
0 NEI11_OILGAS_SOAP    $ROOT/NEI2011/v2015-03/$MM/NEI11_0.1x0.1_2011$MM$DD_oilgas.nc   CO       2006-2013/1-12/1-31/* C xyz kg/m2/s  SOAP 252/1007/280 1   50
0 NEI11_OILGAS_NH3     $ROOT/NEI2011/v2015-03/$MM/NEI11_0.1x0.1_2011$MM$DD_oilgas.nc   NH3      2006-2013/1-12/1-31/* C xyz kg/m2/s  NH3  253/1007     1   50
0 NEI11_OILGAS_SO2     $ROOT/NEI2011/v2015-03/$MM/NEI11_0.1x0.1_2011$MM$DD_oilgas.nc   SO2      2006-2013/1-12/1-31/* C xyz kg/m2/s  SO2  255/1007     1   50
0 NEI11_OILGAS_SULF    $ROOT/NEI2011/v2015-03/$MM/NEI11_0.1x0.1_2011$MM$DD_oilgas.nc   SULF     2006-2013/1-12/1-31/* C xyz kg/m2/s  SO2  255/1007     1   50
0 NEI11_OILGAS_SO4     $ROOT/NEI2011/v2015-03/$MM/NEI11_0.1x0.1_2011$MM$DD_oilgas.nc   PSO4     2006-2013/1-12/1-31/* C xyz kg/m2/s  SO4  255/1007     1   50
0 NEI11_OILGAS_pFe     -                                                               -        -                     - -   -        pFe  255/1007/69  1   50
0 NEI11_OILGAS_BCPI    $ROOT/NEI2011/v2015-03/$MM/NEI11_0.1x0.1_2011$MM$DD_oilgas.nc   PEC      2006-2013/1-12/1-31/* C xyz kg/m2/s  BCPI 256/1007/265 1   50
0 NEI11_OILGAS_BCPO    -                                                               -        -                     - -   -        BCPO 256/1007/266 1   50
0 NEI11_OILGAS_OCPI    $ROOT/NEI2011/v2015-03/$MM/NEI11_0.1x0.1_2011$MM$DD_oilgas.nc   POC      2006-2013/1-12/1-31/* C xyz kg/m2/s  OCPI 257/1007/267 1   50
0 NEI11_OILGAS_OCPO    -                                                               -        -                     - -   -        OCPO 257/1007/268 1   50

# OTHER POINT SOURCES
0 NEI11_OTHPT_SOAP     $ROOT/NEI2011/v2015-03/$MM/NEI11_0.1x0.1_2011$MM$DD_othpt.nc    CO       2006-2013/1-12/1-31/* C xyz kg/m2/s  SOAP 252/1007/280 1   50
0 NEI11_OTHPT_NH3      $ROOT/NEI2011/v2015-03/$MM/NEI11_0.1x0.1_2011$MM$DD_othpt.nc    NH3      2006-2013/1-12/1-31/* C xyz kg/m2/s  NH3  253/1007     1   50
0 NEI11_OTHPT_SO2      $ROOT/NEI2011/v2015-03/$MM/NEI11_0.1x0.1_2011$MM$DD_othpt.nc    SO2      2006-2013/1-12/1-31/* C xyz kg/m2/s  SO2  255/1007     1   50
0 NEI11_OTHPT_SULF     $ROOT/NEI2011/v2015-03/$MM/NEI11_0.1x0.1_2011$MM$DD_othpt.nc    SULF     2006-2013/1-12/1-31/* C xyz kg/m2/s  SO2  255/1007     1   50
0 NEI11_OTHPT_SO4      $ROOT/NEI2011/v2015-03/$MM/NEI11_0.1x0.1_2011$MM$DD_othpt.nc    PSO4     2006-2013/1-12/1-31/* C xyz kg/m2/s  SO4  255/1007     1   50
0 NEI11_OTHPT_pFe      -                                                               -        -                     - -   -        pFe  255/1007/69  1   50
0 NEI11_OTHPT_BCPI     $ROOT/NEI2011/v2015-03/$MM/NEI11_0.1x0.1_2011$MM$DD_othpt.nc    PEC      2006-2013/1-12/1-31/* C xyz kg/m2/s  BCPI 256/1007/265 1   50
0 NEI11_OTHPT_BCPO     -                                                               -        -                     - -   -        BCPO 256/1007/266 1   50
0 NEI11_OTHPT_OCPI     $ROOT/NEI2011/v2015-03/$MM/NEI11_0.1x0.1_2011$MM$DD_othpt.nc    POC      2006-2013/1-12/1-31/* C xyz kg/m2/s  OCPI 257/1007/267 1   50
0 NEI11_OTHPT_OCPO     -                                                               -        -                     - -   -        OCPO 257/1007/268 1   50

# NON-EGU INDUSTRIAL STACKS
0 NEI11_PTNONIPM_SOAP  $ROOT/NEI2011/v2015-03/$MM/NEI11_0.1x0.1_2011$MM$DD_ptnonipm.nc CO       2006-2013/1-12/1-31/* C xyz kg/m2/s  SOAP 252/1007/280 1   50
0 NEI11_PTNONIPM_NH3   $ROOT/NEI2011/v2015-03/$MM/NEI11_0.1x0.1_2011$MM$DD_ptnonipm.nc NH3      2006-2013/1-12/1-31/* C xyz kg/m2/s  NH3  253/1007     1   50
0 NEI11_PTNONIPM_SO2   $ROOT/NEI2011/v2015-03/$MM/NEI11_0.1x0.1_2011$MM$DD_ptnonipm.nc SO2      2006-2013/1-12/1-31/* C xyz kg/m2/s  SO2  255/1007     1   50
0 NEI11_PTNONIPM_SULF  $ROOT/NEI2011/v2015-03/$MM/NEI11_0.1x0.1_2011$MM$DD_ptnonipm.nc SULF     2006-2013/1-12/1-31/* C xyz kg/m2/s  SO2  255/1007     1   50
0 NEI11_PTNONIPM_SO4   $ROOT/NEI2011/v2015-03/$MM/NEI11_0.1x0.1_2011$MM$DD_ptnonipm.nc PSO4     2006-2013/1-12/1-31/* C xyz kg/m2/s  SO4  255/1007     1   50
0 NEI11_PTNONIPM_pFe   -                                                               -        -                     - -   -        pFe  255/1007/69  1   50
0 NEI11_PTNONIPM_BCPI  $ROOT/NEI2011/v2015-03/$MM/NEI11_0.1x0.1_2011$MM$DD_ptnonipm.nc PEC      2006-2013/1-12/1-31/* C xyz kg/m2/s  BCPI 256/1007/265 1   50
0 NEI11_PTNONIPM_BCPO  -                                                               -        -                     - -   -        BCPO 256/1007/266 1   50
0 NEI11_PTNONIPM_OCPI  $ROOT/NEI2011/v2015-03/$MM/NEI11_0.1x0.1_2011$MM$DD_ptnonipm.nc POC      2006-2013/1-12/1-31/* C xyz kg/m2/s  OCPI 257/1007/267 1   50
0 NEI11_PTNONIPM_OCPO  -                                                               -        -                     - -   -        OCPO 257/1007/268 1   50
)))NEI2011_HOURLY

#------------------------------------------------
# MONTHLY MEAN NEI2011
#------------------------------------------------

(((NEI2011_MONMEAN
# SURFACE INVENTORY
0 NEI11_SURFACE_SOAP   $ROOT/NEI2011/v2017-02-MM/$MM/NEI11_0.1x0.1_2011$MM_monmean.nc          CO       2006-2013/1-12/1/0 C xy  kg/m2/s  SOAP 26/211/252/1007/280 1/2 50
0 NEI11_SURFACE_NH3    $ROOT/NEI2011/v2017-02-MM/$MM/NEI11_0.1x0.1_2011$MM_monmean.nc          NH3      2006-2013/1-12/1/0 C xy  kg/m2/s  NH3  26/213/253/1007     1/2 50
0 NEI11_SURFACE_SO2    $ROOT/NEI2011/v2017-02-MM/$MM/NEI11_0.1x0.1_2011$MM_monmean.nc          SO2      2006-2013/1-12/1/0 C xy  kg/m2/s  SO2  26/218/255/1007     1/2 50
0 NEI11_SURFACE_SULF   $ROOT/NEI2011/v2017-02-MM/$MM/NEI11_0.1x0.1_2011$MM_monmean.nc          SULF     2006-2013/1-12/1/0 C xy  kg/m2/s  SO2  26/218/255/1007     1/2 50
0 NEI11_SURFACE_SO4    $ROOT/NEI2011/v2017-02-MM/$MM/NEI11_0.1x0.1_2011$MM_monmean.nc          PSO4     2006-2013/1-12/1/0 C xy  kg/m2/s  SO4  26/219/255/1007     1/2 50
0 NEI11_SURFACE_pFe    -                                                                       -        -                  - -   -        pFe  26/219/255/1007/69  1/2 50
0 NEI11_SURFACE_BCPI   $ROOT/NEI2011/v2017-02-MM/$MM/NEI11_0.1x0.1_2011$MM_monmean.nc          PEC      2006-2013/1-12/1/0 C xy  kg/m2/s  BCPI 26/221/256/1007/265 1/2 50
0 NEI11_SURFACE_BCPO   -                                                                       -        -                  - -   -        BCPO 26/221/256/1007/266 1/2 50
0 NEI11_SURFACE_OCPI   $ROOT/NEI2011/v2017-02-MM/$MM/NEI11_0.1x0.1_2011$MM_monmean.nc          POC      2006-2013/1-12/1/0 C xy  kg/m2/s  OCPI 26/222/257/1007/267 1/2 50
0 NEI11_SURFACE_OCPO   -                                                                       -        -                  - -   -        OCPO 26/222/257/1007/268 1/2 50

# ELECTRIC GENERATING UNITS (EGUs)
0 NEI11_EGU_SOAP       $ROOT/NEI2011/v2017-02-MM/$MM/NEI11_0.1x0.1_2011$MM_monmean_egu.nc      CO       2006-2013/1-12/1/0 C xyz kg/m2/s  SOAP 26/211/252/1007/280 1   50
#0 NEI11_EGU_NH3       $ROOT/NEI2011/v2017-02-MM/$MM/NEI11_0.1x0.1_2011$MM_monmean_egu.nc      NH3      2006-2013/1-12/1/0 C xyz kg/m2/s  NH3  26/213/253/1007     1   50
0 NEI11_EGU_SO2        $ROOT/NEI2011/v2017-02-MM/$MM/NEI11_0.1x0.1_2011$MM_monmean_egu.nc      SO2      2006-2013/1-12/1/0 C xyz kg/m2/s  SO2  26/218/255/1007     1   50
0 NEI11_EGU_SULF       $ROOT/NEI2011/v2017-02-MM/$MM/NEI11_0.1x0.1_2011$MM_monmean_egu.nc      SULF     2006-2013/1-12/1/0 C xyz kg/m2/s  SO2  26/218/255/1007     1   50
0 NEI11_EGU_SO4        $ROOT/NEI2011/v2017-02-MM/$MM/NEI11_0.1x0.1_2011$MM_monmean_egu.nc      PSO4     2006-2013/1-12/1/0 C xyz kg/m2/s  SO4  26/219/255/1007     1   50
0 NEI11_EGU_pFe        -                                                                       -        -                  - -   -        pFe  26/219/255/1007/69  1   50
0 NEI11_EGU_BCPI       $ROOT/NEI2011/v2017-02-MM/$MM/NEI11_0.1x0.1_2011$MM_monmean_egu.nc      PEC      2006-2013/1-12/1/0 C xyz kg/m2/s  BCPI 26/221/256/1007/265 1   50
0 NEI11_EGU_BCPO       -                                                                       -        -                  - -   -        BCPO 26/221/256/1007/266 1   50
0 NEI11_EGU_OCPI       $ROOT/NEI2011/v2017-02-MM/$MM/NEI11_0.1x0.1_2011$MM_monmean_egu.nc      POC      2006-2013/1-12/1/0 C xyz kg/m2/s  OCPI 26/222/257/1007/267 1   50
0 NEI11_EGU_OCPO       -                                                                       -        -                  - -   -        OCPO 26/222/257/1007/268 1   50

# PEAKING ELECTRIC GENERATING UNITS
0 NEI11_EGUPK_SOAP     $ROOT/NEI2011/v2017-02-MM/$MM/NEI11_0.1x0.1_2011$MM_monmean_egupk.nc    CO       2006-2013/1-12/1/0 C xyz kg/m2/s  SOAP 26/211/252/1007/280 1   50
#0 NEI11_EGUPK_NH3     $ROOT/NEI2011/v2017-02-MM/$MM/NEI11_0.1x0.1_2011$MM_monmean_egupk.nc    NH3      2006-2013/1-12/1/0 C xyz kg/m2/s  NH3  26/213/253/1007     1   50
0 NEI11_EGUPK_SO2      $ROOT/NEI2011/v2017-02-MM/$MM/NEI11_0.1x0.1_2011$MM_monmean_egupk.nc    SO2      2006-2013/1-12/1/0 C xyz kg/m2/s  SO2  26/218/255/1007     1   50
0 NEI11_EGUPK_SULF     $ROOT/NEI2011/v2017-02-MM/$MM/NEI11_0.1x0.1_2011$MM_monmean_egupk.nc    SULF     2006-2013/1-12/1/0 C xyz kg/m2/s  SO2  26/218/255/1007     1   50
0 NEI11_EGUPK_SO4      $ROOT/NEI2011/v2017-02-MM/$MM/NEI11_0.1x0.1_2011$MM_monmean_egupk.nc    PSO4     2006-2013/1-12/1/0 C xyz kg/m2/s  SO4  26/219/255/1007     1   50
0 NEI11_EGUPK_pFe      -                                                                       -        -                  - -   -        pFe  26/219/255/1007/69  1   50
0 NEI11_EGUPK_BCPI     $ROOT/NEI2011/v2017-02-MM/$MM/NEI11_0.1x0.1_2011$MM_monmean_egupk.nc    PEC      2006-2013/1-12/1/0 C xyz kg/m2/s  BCPI 26/221/256/1007/265 1   50
0 NEI11_EGUPK_BCPO     -                                                                       -        -                  - -   -        BCPO 26/221/256/1007/266 1   50
0 NEI11_EGUPK_OCPI     $ROOT/NEI2011/v2017-02-MM/$MM/NEI11_0.1x0.1_2011$MM_monmean_egupk.nc    POC      2006-2013/1-12/1/0 C xyz kg/m2/s  OCPI 26/222/257/1007/267 1   50
0 NEI11_EGUPK_OCPO     -                                                                       -        -                  - -   -        OCPO 26/222/257/1007/268 1   50

# OIL & GAS
0 NEI11_OILGAS_SOAP    $ROOT/NEI2011/v2017-02-MM/$MM/NEI11_0.1x0.1_2011$MM_monmean_oilgas.nc   CO       2006-2013/1-12/1/0 C xyz kg/m2/s  SOAP 26/211/252/1007/280 1   50
0 NEI11_OILGAS_NH3     $ROOT/NEI2011/v2017-02-MM/$MM/NEI11_0.1x0.1_2011$MM_monmean_oilgas.nc   NH3      2006-2013/1-12/1/0 C xyz kg/m2/s  NH3  26/213/253/1007     1   50
0 NEI11_OILGAS_SO2     $ROOT/NEI2011/v2017-02-MM/$MM/NEI11_0.1x0.1_2011$MM_monmean_oilgas.nc   SO2      2006-2013/1-12/1/0 C xyz kg/m2/s  SO2  26/218/255/1007     1   50
0 NEI11_OILGAS_SULF    $ROOT/NEI2011/v2017-02-MM/$MM/NEI11_0.1x0.1_2011$MM_monmean_oilgas.nc   SULF     2006-2013/1-12/1/0 C xyz kg/m2/s  SO2  26/218/255/1007     1   50
0 NEI11_OILGAS_SO4     $ROOT/NEI2011/v2017-02-MM/$MM/NEI11_0.1x0.1_2011$MM_monmean_oilgas.nc   PSO4     2006-2013/1-12/1/0 C xyz kg/m2/s  SO4  26/219/255/1007     1   50
0 NEI11_OILGAS_pFe     -                                                                       -        -                  - -   -        pFe  26/219/255/1007/69  1   50
0 NEI11_OILGAS_BCPI    $ROOT/NEI2011/v2017-02-MM/$MM/NEI11_0.1x0.1_2011$MM_monmean_oilgas.nc   PEC      2006-2013/1-12/1/0 C xyz kg/m2/s  BCPI 26/221/256/1007/265 1   50
0 NEI11_OILGAS_BCPO    -                                                                       -        -                  - -   -        BCPO 26/221/256/1007/266 1   50
0 NEI11_OILGAS_OCPI    $ROOT/NEI2011/v2017-02-MM/$MM/NEI11_0.1x0.1_2011$MM_monmean_oilgas.nc   POC      2006-2013/1-12/1/0 C xyz kg/m2/s  OCPI 26/222/257/1007/267 1   50
0 NEI11_OILGAS_OCPO    -                                                                       -        -                  - -   -        OCPO 26/222/257/1007/268 1   50

# OTHER POINT SOURCES
0 NEI11_OTHPT_SOAP     $ROOT/NEI2011/v2017-02-MM/$MM/NEI11_0.1x0.1_2011$MM_monmean_othpt.nc    CO       2006-2013/1-12/1/0 C xyz kg/m2/s  SOAP 26/211/252/1007/280 1   50
0 NEI11_OTHPT_NH3      $ROOT/NEI2011/v2017-02-MM/$MM/NEI11_0.1x0.1_2011$MM_monmean_othpt.nc    NH3      2006-2013/1-12/1/0 C xyz kg/m2/s  NH3  26/213/253/1007     1   50
0 NEI11_OTHPT_SO2      $ROOT/NEI2011/v2017-02-MM/$MM/NEI11_0.1x0.1_2011$MM_monmean_othpt.nc    SO2      2006-2013/1-12/1/0 C xyz kg/m2/s  SO2  26/218/255/1007     1   50
0 NEI11_OTHPT_SULF     $ROOT/NEI2011/v2017-02-MM/$MM/NEI11_0.1x0.1_2011$MM_monmean_othpt.nc    SULF     2006-2013/1-12/1/0 C xyz kg/m2/s  SO2  26/218/255/1007     1   50
0 NEI11_OTHPT_SO4      $ROOT/NEI2011/v2017-02-MM/$MM/NEI11_0.1x0.1_2011$MM_monmean_othpt.nc    PSO4     2006-2013/1-12/1/0 C xyz kg/m2/s  SO4  26/219/255/1007     1   50
0 NEI11_OTHPT_pFe      -                                                                       -        -                  - -   -        pFe  26/219/255/1007/69  1   50
0 NEI11_OTHPT_BCPI     $ROOT/NEI2011/v2017-02-MM/$MM/NEI11_0.1x0.1_2011$MM_monmean_othpt.nc    PEC      2006-2013/1-12/1/0 C xyz kg/m2/s  BCPI 26/221/256/1007/265 1   50
0 NEI11_OTHPT_BCPO     -                                                                       -        -                  - -   -        BCPO 26/221/256/1007/266 1   50
0 NEI11_OTHPT_OCPI     $ROOT/NEI2011/v2017-02-MM/$MM/NEI11_0.1x0.1_2011$MM_monmean_othpt.nc    POC      2006-2013/1-12/1/0 C xyz kg/m2/s  OCPI 26/222/257/1007/267 1   50
0 NEI11_OTHPT_OCPO     -                                                                       -        -                  - -   -        OCPO 26/222/257/1007/268 1   50

# NON-EGU INDUSTRIAL STACKS
0 NEI11_PTNONIPM_SOAP  $ROOT/NEI2011/v2017-02-MM/$MM/NEI11_0.1x0.1_2011$MM_monmean_ptnonipm.nc CO       2006-2013/1-12/1/0 C xyz kg/m2/s  SOAP 26/211/252/1007/280 1   50
0 NEI11_PTNONIPM_NH3   $ROOT/NEI2011/v2017-02-MM/$MM/NEI11_0.1x0.1_2011$MM_monmean_ptnonipm.nc NH3      2006-2013/1-12/1/0 C xyz kg/m2/s  NH3  26/213/253/1007     1   50
0 NEI11_PTNONIPM_SO2   $ROOT/NEI2011/v2017-02-MM/$MM/NEI11_0.1x0.1_2011$MM_monmean_ptnonipm.nc SO2      2006-2013/1-12/1/0 C xyz kg/m2/s  SO2  26/218/255/1007     1   50
[...]
* GLOBAL_NO3  $ROOT/OFFLINE_AEROSOL/v2014-09/NO3.geos5.2x25.nc         NO3   1985/1-12/1/0 C xyz v/v     * - 1 1
* GLOBAL_HNO3 $ROOT/OFFLINE_AEROSOL/v2014-09/THNO3.geos5.2x25.nc       THNO3 1985/1-12/1/0 C xyz v/v     * - 1 1
* GLOBAL_OH   $ROOT/OH/v2014-09/v5-07-08/OH_3Dglobal.geos5.72L.2x25.nc OH    1985/1-12/1/0 C xyz kg/m3 * - 1 1

### END SECTION BASE EMISSIONS ###

###############################################################################
### BEGIN SECTION SCALE FACTORS 
###############################################################################

# ScalID Name sourceFile sourceVar sourceTime C/R/E SrcDim SrcUnit Oper

#==============================================================================
# --- annual scale factors ---
#==============================================================================
1  TOTFUEL_THISYR    $ROOT/AnnualScalar/v2014-07/AnnualScalar.geos.1x1.nc NOxscalar 1985-2010/1/1/0 C xy 1  1
2  TOTFUEL_1985      $ROOT/AnnualScalar/v2014-07/AnnualScalar.geos.1x1.nc NOxscalar 1985/1/1/0      C xy 1 -1
3  TOTFUEL_1999      $ROOT/AnnualScalar/v2014-07/AnnualScalar.geos.1x1.nc NOxscalar 1999/1/1/0      C xy 1 -1
4  TOTFUEL_2006      $ROOT/AnnualScalar/v2014-07/AnnualScalar.geos.1x1.nc NOxscalar 2006/1/1/0      C xy 1 -1
5  TOTFUEL_2002      $ROOT/AnnualScalar/v2014-07/AnnualScalar.geos.1x1.nc NOxscalar 2002/1/1/0      C xy 1 -1
16 TOTFUEL_2005      $ROOT/AnnualScalar/v2014-07/AnnualScalar.geos.1x1.nc NOxscalar 2005/1/1/0      C xy 1 -1
27 TOTFUEL_2008_2010 $ROOT/AnnualScalar/v2014-07/AnnualScalar.geos.1x1.nc NOxscalar 2008-2010/1/1/0 C xy 1 -1
40 TOTFUEL_1985_2008 $ROOT/AnnualScalar/v2014-07/AnnualScalar.geos.1x1.nc NOxscalar 1985-2008/1/1/0 C xy 1 -1
6  LIQFUEL_THISYR    $ROOT/AnnualScalar/v2014-07/AnnualScalar.geos.1x1.nc COscalar  1985-2010/1/1/0 C xy 1  1
7  LIQFUEL_1985      $ROOT/AnnualScalar/v2014-07/AnnualScalar.geos.1x1.nc COscalar  1985/1/1/0      C xy 1 -1
8  LIQFUEL_1999      $ROOT/AnnualScalar/v2014-07/AnnualScalar.geos.1x1.nc COscalar  1999/1/1/0      C xy 1 -1
9  LIQFUEL_2006      $ROOT/AnnualScalar/v2014-07/AnnualScalar.geos.1x1.nc COscalar  2006/1/1/0      C xy 1 -1
10 LIQFUEL_2002      $ROOT/AnnualScalar/v2014-07/AnnualScalar.geos.1x1.nc COscalar  2002/1/1/0      C xy 1 -1
17 LIQFUEL_2005      $ROOT/AnnualScalar/v2014-07/AnnualScalar.geos.1x1.nc COscalar  2005/1/1/0      C xy 1 -1
28 LIQFUEL_2008_2010 $ROOT/AnnualScalar/v2014-07/AnnualScalar.geos.1x1.nc COscalar  2008-2010/1/1/0 C xy 1 -1
41 LIQFUEL_1985_2008 $ROOT/AnnualScalar/v2014-07/AnnualScalar.geos.1x1.nc COscalar  1985-2008/1/1/0 C xy 1 -1
11 SOLFUEL_THISYR    $ROOT/AnnualScalar/v2014-07/AnnualScalar.geos.1x1.nc SO2scalar 1985-2010/1/1/0 C xy 1  1
12 SOLFUEL_1985      $ROOT/AnnualScalar/v2014-07/AnnualScalar.geos.1x1.nc SO2scalar 1985/1/1/0      C xy 1 -1
13 SOLFUEL_1999      $ROOT/AnnualScalar/v2014-07/AnnualScalar.geos.1x1.nc SO2scalar 1999/1/1/0      C xy 1 -1
14 SOLFUEL_2006      $ROOT/AnnualScalar/v2014-07/AnnualScalar.geos.1x1.nc SO2scalar 2006/1/1/0      C xy 1 -1
15 SOLFUEL_2002      $ROOT/AnnualScalar/v2014-07/AnnualScalar.geos.1x1.nc SO2scalar 2002/1/1/0      C xy 1 -1
18 SOLFUEL_2005      $ROOT/AnnualScalar/v2014-07/AnnualScalar.geos.1x1.nc SO2scalar 2005/1/1/0      C xy 1 -1
19 SOLFUEL_2008      $ROOT/AnnualScalar/v2014-07/AnnualScalar.geos.1x1.nc SO2scalar 2008/1/1/0      C xy 1 -1
29 SOLFUEL_2008_2010 $ROOT/AnnualScalar/v2014-07/AnnualScalar.geos.1x1.nc SO2scalar 2008-2010/1/1/0 C xy 1 -1
42 SOLFUEL_1985_2008 $ROOT/AnnualScalar/v2014-07/AnnualScalar.geos.1x1.nc SO2scalar 1985-2008/1/1/0 C xy 1 -1
23 LIQFUEL_2008      $ROOT/AnnualScalar/v2014-07/AnnualScalar.geos.1x1.nc COscalar  2008/1/1/0      C xy 1 -1
24 TOTFUEL_2008      $ROOT/AnnualScalar/v2014-07/AnnualScalar.geos.1x1.nc NOxscalar 2008/1/1/0      C xy 1 -1

#==============================================================================
# --- temporary scale factors for comparisons
#==============================================================================
919 NO_ratio $ROOT/AnnualScalar/v2014-07/NO_ratio_2005_2002.nc NOXscalar 2005/1/1/0 C xy unitless 1
918 CO_ratio $ROOT/AnnualScalar/v2014-07/CO_ratio_2005_1985.nc COscalar 2005/1/1/0 C xy unitless 1

#==============================================================================
# --- day-of-week scale factors ---
# ==> data is Sun/Mon/.../Sat 
#==============================================================================
20 GEIA_DOW_NOX 0.784/1.0706/1.0706/1.0706/1.0706/1.0706/0.863 - - - xy unitless 1
21 GEIA_DOW_CO  0.683/1.1076/1.0706/1.0706/1.0706/1.0706/0.779 - - - xy unitless 1
22 GEIA_DOW_HC  0.671/1.1102/1.1102/1.1102/1.1102/1.1102/0.768 - - - xy unitless 1 

#==============================================================================
# --- diurnal scale factors --- 
#==============================================================================
25 EDGAR_TODNOX $ROOT/EDGARv42/v2015-02/NO/EDGAR_hourly_NOxScal.nc NOXscale 2000/1/1/* C xy unitless 1
26 GEIA_TOD_FOSSIL 0.45/0.45/0.6/0.6/0.6/0.6/1.45/1.45/1.45/1.45/1.4/1.4/1.4/1.4/1.45/1.45/1.45/1.45/0.65/0.65/0.65/0.65/0.45/0.45 - - - xy unitless 1

#==============================================================================
# --- seasonal scale factors ---
#==============================================================================
# from GEIA:
30 GEIA_SEASON_NOX  $ROOT/GEIA/v2014-07/GEIA_monthscal.generic.1x1.nc NOXrat 1985/1-12/1/0 C xy unitless 1
31 GEIA_SEASON_SO2  $ROOT/GEIA/v2014-07/GEIA_monthscal.generic.1x1.nc SO2rat 1985/1-12/1/0 C xy unitless 1

# from EMEP:
32 EMEP_SEASON_NOX $ROOT/EMEP/v2015-03/EMEP.Seasonal.geos.1x1.nc NOXrat 2005/1-12/1/0 C xy unitless 1
33 EMEP_SEASON_CO  $ROOT/EMEP/v2015-03/EMEP.Seasonal.geos.1x1.nc COrat  2005/1-12/1/0 C xy unitless 1
34 EMEP_SEASON_NH3 $ROOT/EMEP/v2015-03/EMEP.Seasonal.geos.1x1.nc NH3rat 2005/1-12/1/0 C xy unitless 1
35 EMEP_SEASON_SO2 $ROOT/EMEP/v2015-03/EMEP.Seasonal.geos.1x1.nc SO2rat 2005/1-12/1/0 C xy unitless 1

# from Streets:
36 ZHANG_SEASON_NOX   $ROOT/STREETS/v2014-07/2006/Streets_2004_NOx_MonthFctr_total.generic.1x1.nc NOxrat    2004/1-12/1/0 C xy unitless 1
37 ZHANG_SEASON_CO    $ROOT/STREETS/v2014-07/2006/Streets_2001_CO_MonthFctr_total.generic.1x1.nc  ratio     2001/1-12/1/0 C xy unitless 1 
38 STREETS_SEASON_NH3 $ROOT/STREETS/v2014-07/2000/Streets_NH3_scale.generic.1x1.nc                NH3_scale 1995/1-12/1/0 C xy unitless 1 

# for Bromocarbons:
39 BROMOCARB_SEASON $ROOT/BROMINE/v2015-02/BromoCarb_Season.nc CHXBRY_scale 2000/1-12/1/0 C xy unitless 1

# for EDGAR 4.3.1:
# Using data of 2010, the calculated seasonal ratio for different species in the 
# same sector are nearly identical, possibly due to consistent activity data used.
# Therefore we use the seasonal scale factors of CO in 2010 for most sectors, 
# except for AGR, AWB and SOL.
# For AGR, the NH3 AGR seasonal scale factors are used.
# For AWB, the CO AGR seasonal scale factors are used.
# For SOL, the NOx AGR seasonal scale factors are used.
1201 POW $ROOT/EDGARv43/v2016-11/EDGAR_v43.Seasonal.1x1.nc POW 2010/1-12/1/0 C xy unitless 1
1202 ENG $ROOT/EDGARv43/v2016-11/EDGAR_v43.Seasonal.1x1.nc ENG 2010/1-12/1/0 C xy unitless 1
1203 IND $ROOT/EDGARv43/v2016-11/EDGAR_v43.Seasonal.1x1.nc IND 2010/1-12/1/0 C xy unitless 1
1204 TRO $ROOT/EDGARv43/v2016-11/EDGAR_v43.Seasonal.1x1.nc TRO 2010/1-12/1/0 C xy unitless 1
1205 TNG $ROOT/EDGARv43/v2016-11/EDGAR_v43.Seasonal.1x1.nc TNG 2010/1-12/1/0 C xy unitless 1
1206 RCO $ROOT/EDGARv43/v2016-11/EDGAR_v43.Seasonal.1x1.nc RCO 2010/1-12/1/0 C xy unitless 1
1207 PPA $ROOT/EDGARv43/v2016-11/EDGAR_v43.Seasonal.1x1.nc PPA 2010/1-12/1/0 C xy unitless 1
1208 AGR $ROOT/EDGARv43/v2016-11/EDGAR_v43.Seasonal.1x1.nc AGR 2010/1-12/1/0 C xy unitless 1
1209 AWB $ROOT/EDGARv43/v2016-11/EDGAR_v43.Seasonal.1x1.nc AWB 2010/1-12/1/0 C xy unitless 1
1210 SOL $ROOT/EDGARv43/v2016-11/EDGAR_v43.Seasonal.1x1.nc SOL 2010/1-12/1/0 C xy unitless 1
1211 SWD $ROOT/EDGARv43/v2016-11/EDGAR_v43.Seasonal.1x1.nc SWD 2010/1-12/1/0 C xy unitless 1
1212 FFF $ROOT/EDGARv43/v2016-11/EDGAR_v43.Seasonal.1x1.nc FFF 2010/1-12/1/0 C xy unitless 1

#==============================================================================
# --- VOC speciations ---
#==============================================================================

50 RETRO_KET2MEK    0.25  - - - xy unitless 1
51 RETRO_KET2ACET   0.75  - - - xy unitless 1
52 COPROD_FOSSIL    1.02  - - - xy unitless 1
53 COPROD_BIOFUEL   1.086 - - - xy unitless 1
54 COPROD_BIOMASS   1.05  - - - xy unitless 1
55 ACETSCAL_FOSSIL  0.82  - - - xy unitless 1
56 ACETSCAL_BIOFUEL 0.82  - - - xy unitless 1

#==============================================================================
# --- SOx to SO2 conversion (Chin et al., 2000) ---
#==============================================================================
60 SOX2SO2_GLOBAL 0.986  - - - xy unitless 1
61 SOX2SO2_EU     0.95   - - - xy unitless 1
62 SULFUR2SOX     2.0    - - - xy unitless 1
63 SO2toSO4       0.031  - - - xy unitless 1
64 SOX2SO4_EU     0.05   - - - xy unitless 1
65 SO2toSO4_CAC   0.014  - - - xy unitless 1
66 SO2toPFe       1.0e-3 - - - xy unitless 1
67 SOX2PFe_EU     1.7e-3 - - - xy unitless 1
68 SO2toPFe_CAC   4.7e-4 - - - xy unitless 1
69 SO2toPFe_NEI   1.0e-3 - - - xy unitless 1
78 SO2FRAC        0.969  - - - xy unitless 1

#==============================================================================
# --- Carbon aerosols: speciation of hydrophilic and hydrophobic fractions ---
#
# Fractions applied to the biomass burning extensions (GFED or FINN) are
# specified separately in the extensions section.
#==============================================================================
70 BC2BCPI  0.2  - - - xy unitless 1
71 BC2BCPO  0.8  - - - xy unitless 1
72 OC2OCPI  0.5  - - - xy unitless 1
73 OC2OCPO  0.5  - - - xy unitless 1
74 POGSCAL  1.27 - - - xy unitless 1
76 SV2POG1  0.49 - - - xy unitless 1
77 SV2POG2  0.51 - - - xy unitless 1

#==============================================================================
# --- QFED2 diurnal scale factors ---
#
# Fire diurnal scaling factors (% per hour) from WRAP Report to Project
# No. 178-6, July 2005
#==============================================================================
75 QFED2_TOD 0.1392/0.1392/0.1368/0.1368/0.1368/0.1368/0.1368/0.1368/0.1368/0.48/0.96/1.68/2.4/3.12/3.84/4.08/2.88/1.68/0.96/0.1368/0.1368/0.1368/0.1368/0.1368 - - - xy unitless 1

#==============================================================================
# --- NAP scale factors ---
#
# Get anthropogenic (FF) NAP emissions by scaling BENZ emissions with the
# following factor. Factor is ratio of TgC NAP to TgC BENZ emissions
# or equivalently, molec C NAP to molec C BENZ. Scaling should produce
# about 0.09 TgC NAP/year, consistent with non-BB,BF emissions predicted
# by Zhang and Tao 2009 Atm Env
# Based on year 2000 1x1 inv  (hotp 11/14/09)
#REAL*8, PARAMETER    :: NAPTOBENZSCALE = 0.06861d0

# NAPTOTSCAL: factor to scale total NAP emissions to POA (hotp 7/24/09)
#REAL*8, PARAMETER    :: NAPTOTALSCALE = 66.09027d0
 
# = CO emissions * emissions ratio of mol NAP / mol CO 
# * kg C / mol NAP * mol CO / kg CO 
# mmol NAP / mol CO = 0.025 g NAP/ kg DM / 
#              ( 78 g CO/ kg DM ) * 28 g CO / mol CO
#            / ( 128 g NAP / mol NAP ) *1000 mmol/mol
# scale emissions down if appropriate to remove the
# effect of VOC ox on CO emission
# EF for NAP from Andreae and Merlet 2001 Glob Biog Cyc
# EF for CO  from Andreae and Merlet 2001 Glob Biog Cyc
#BIOFUEL_KG(N,:,:) = BIOFUEL_KG(IDBFCO,:,:) * 0.0701d-3 
#                  * 120d0 / 28d0 * COSCALEDOWN
#==============================================================================
80 NAPEMISS   1.0     - - - xy unitless 1
81 NAPTOTSCAL 66.09   - - - xy unitless 1
82 BENZTONAP  6.86e-2 - - - xy unitless 1 
83 BF_COtoNAP 3.00e-4 - - - xy unitless 1

#==============================================================================
# --- Biofuel conversion factors ---
#==============================================================================
91 BF_COtoSO2   3.43e-3 - - - xy unitless 1

#==============================================================================
# --- AEIC aircraft emissions ---
#
# Sulfur conversion factors are calculated as 
#     so4 = 3 * a * b and so2 = 2 * a * (1-b)
#
# where 
#     a = fraction by mass (6.0e-4) and 
#     b = conversion efficiency (2.0e-2).
#
# The factors 2 and 3 come from sulfur mass conversions (96/32 and 64/32).
# All factors are taken from AEIC_mod.F, following Seb Estham's appraoch.
# Note that all emissions become multiplied by a factor of 1e-3 (except for 
# the fuelburn emissions) in the original AEIC code. I'm not sure if this 
# is because the netCDF data is in g instead of kg?
#==============================================================================
110 AEICNOCO 1.000000e-3 - -  - xy unitless 1
111 AEICSO2  1.176000e-3 - -  - xy unitless 1
112 AEICSO4  3.600000e-5 - -  - xy unitless 1
113 AEICBC   3.000000e-5 - -  - xy unitless 1
114 AEICHC   1.160000e-3 - -  - xy unitless 1
115 NO2toNO  6.521739e-1 - -  - xy unitless 1

#==============================================================================
# --- NEI 2005 scale factors ---
#==============================================================================
201 VISTAS_SEASON     $ROOT/NEI2005/v2014-09/scaling/Vistas_season.geos.1x1.nc       NOratio      2002/1-12/1/0  C xy 1 1
202 ARP_SEASON        $ROOT/NEI2005/v2014-09/scaling/ARP_season.geos.1x1.nc          NOxrat  1999-2007/1-12/1/0  C xy 1 1
211 NEI99_DOW_CO      $ROOT/NEI2005/v2014-09/scaling/NEI99.dow.geos.1x1.nc           CO           1999/1-12/WD/0 C xy 1 1
213 NEI99_DOW_ACET    $ROOT/NEI2005/v2014-09/scaling/NEI99.dow.geos.1x1.nc           ACET         1999/1-12/WD/0 C xy 1 1
218 NEI99_DOW_SO2     $ROOT/NEI2005/v2014-09/scaling/NEI99.dow.geos.1x1.nc           SO2          1999/1-12/WD/0 C xy 1 1
219 NEI99_DOW_SO4     $ROOT/NEI2005/v2014-09/scaling/NEI99.dow.geos.1x1.nc           SO4          1999/1-12/WD/0 C xy 1 1
220 NEI99_DOW_MSA     $ROOT/NEI2005/v2014-09/scaling/NEI99.dow.geos.1x1.nc           MSA          1999/1-12/WD/0 C xy 1 1
221 NEI99_DOW_BCPI    $ROOT/NEI2005/v2014-09/scaling/NEI99.dow.geos.1x1.nc           BCPI         1999/1-12/WD/0 C xy 1 1
222 NEI99_DOW_OCPI    $ROOT/NEI2005/v2014-09/scaling/NEI99.dow.geos.1x1.nc           OCPI         1999/1-12/WD/0 C xy 1 1
230 NEI99_SEASON_CO   $ROOT/NEI2005/v2014-09/scaling/NEI99.season.geos.1x1.nc        CO           1999/1-12/1/0  C xy 1 1
237 NEI99_SEASON_SO2  $ROOT/NEI2005/v2014-09/scaling/NEI99.season.geos.1x1.nc        SO2          1999/1-12/1/0  C xy 1 1
238 NEI99_SEASON_SO4  $ROOT/NEI2005/v2014-09/scaling/NEI99.season.geos.1x1.nc        SO4          1999/1-12/1/0  C xy 1 1
239 NEI99_SEASON_MSA  $ROOT/NEI2005/v2014-09/scaling/NEI99.season.geos.1x1.nc        MSA          1999/1-12/1/0  C xy 1 1
240 NEI99_SEASON_BCPI $ROOT/NEI2005/v2014-09/scaling/NEI99.season.geos.1x1.nc        BCPI         1999/1-12/1/0  C xy 1 1
241 NEI99_SEASON_OCPI $ROOT/NEI2005/v2014-09/scaling/NEI99.season.geos.1x1.nc        OCPI         1999/1-12/1/0  C xy 1 1
242 NEI99_SEASON_NH3  0.216/0.418/0.622/0.815/0.982/0.974/1.0/0.9/0.96/0.6/0.28/0.236 -            -             - xy 1 1

#==============================================================================
# --- NEI 2011 scale factors ---
#==============================================================================
252 NEI11_CO_YRSCALE  1.271/1.227/1.104/0.998/1.019/1.0/0.981/0.962 - 2006-2013/1/1/0 C xy 1 1 
253 NEI11_NH3_YRSCALE 0.966/1.002/1.019/1.015/1.010/1.0/0.999/0.998 - 2006-2013/1/1/0 C xy 1 1 
255 NEI11_SO2_YRSCALE 2.038/1.813/1.600/1.408/1.200/1.0/0.800/0.738 - 2006-2013/1/1/0 C xy 1 1 
256 NEI11_BC_YRSCALE  1.006/1.034/0.996/0.995/0.993/1.0/0.995/0.991 - 2006-2013/1/1/0 C xy 1 1 
257 NEI11_OC_YRSCALE  1.006/1.034/0.996/0.995/0.993/1.0/0.995/0.991 - 2006-2013/1/1/0 C xy 1 1 
265 NEI11_BC2BCPI     0.2                                           - -               - xy 1 1
266 NEI11_BC2BCPO     0.8                                           - -               - xy 1 1
267 NEI11_OC2OCPI     0.5                                           - -               - xy 1 1
268 NEI11_OC2OCPO     0.5                                           - -               - xy 1 1

#==============================================================================
# --- Aromatics scale factors ---
#
# Increase aromatics over China to be more in line with measurements
# for Chinese cities (E. Fischer)
# Refs: Barletta et al. (2005), Atmos Environ, 39, 5979-5990
#       Liu et al. (2010), Environ Sci Technol, 44, 7017-7022.
#==============================================================================
270 BENZ_CH_SCAL 1.25 - - - xy 1 1 1003
271 TOLU_CH_SCAL 4.00 - - - xy 1 1 1003
272 XYLE_CH_SCAL 8.00 - - - xy 1 1 1003

#==============================================================================
# --- SOA-Precursor scale factors ---
#
# from Kim, P.S., et. al. 2015 "Sources, seasonality, and trends 
# of southeast US aerosol: ..."
#
#   AVOCs and BBVOCs are emitted in proportion to CO, with an emission ratio of
#   0.069 g AVOC (g CO)1 (Hayes et al., 2015) and
#   0.013 g BBVOC (g CO)1 (Cubison et al., 2011).
#   They are both oxidized by OH in the model ... to generate SOA.
#==============================================================================
280 COtoSOAP_anth 0.069 - - - xy 1 1
281 COtoSOAP_burn 0.013 - - - xy 1 1

### END SECTION SCALE FACTORS ###

###############################################################################
### BEGIN SECTION MASKS 
###############################################################################

# ScalID Name sourceFile sourceVar sourceTime C/R/E SrcDim SrcUnit Oper Lon1/Lat1/Lon2/Lat2

#==============================================================================
# Country/region masks
#==============================================================================
1000 EMEP_MASK   $ROOT/MASKS/v2014-07/EMEP_mask.geos.1x1.20151222.nc           MASK     2000/1/1/0 C xy unitless 1 -30/30/45/70
1001 MEXICO_MASK $ROOT/MASKS/v2014-07/BRAVO.MexicoMask.generic.1x1.nc          MASK     2000/1/1/0 C xy unitless 1 -118/17/-95/33
1002 CANADA_MASK $ROOT/MASKS/v2014-07/Canada_mask.geos.1x1.nc                  MASK     2000/1/1/0 C xy unitless 1 -141/40/-52/85
1003 SEASIA_MASK $ROOT/MASKS/v2014-07/SE_Asia_mask.generic.1x1.nc              MASK     2000/1/1/0 C xy unitless 1  60/-12/153/55
1004 NA_MASK     $ROOT/MASKS/v2014-07/NA_mask.geos.1x1.nc                      MASK     2000/1/1/0 C xy unitless 1 -165/10/-40/90
1005 USA_MASK    $ROOT/MASKS/v2014-07/usa.mask.nei2005.geos.1x1.nc             MASK     2000/1/1/0 C xy unitless 1 -165/10/-40/90
1006 ASIA_MASK   $ROOT/MASKS/v2014-07/MIX_Asia_mask.generic.025x025.nc         MASK     2000/1/1/0 C xy unitless 1 46/-12/180/82
1007 NEI11_MASK  $ROOT/MASKS/v2014-07/USA_LANDMASK_NEI2011_0.1x0.1.20160921.nc LANDMASK 2000/1/1/0 C xy 1        1 -140/20/-50/60
1008 AF_MASK     $ROOT/MASKS/v2014-07/AF_LANDMASK.geos.05x0666.nc              LANDMASK 1985/1/1/0 C xy unitless 1 -20/-37/54/40
############################################################################## 
#### NOTE: These masks correspond to the fine dust emissions for the 
#### DEAD dust extension, which are on hold for the time being.  For the
#### time being, comment out these mask entries so that we can quickly
#### restore them at a later date.
####     -- Bob Yantosca (11 Apr 2018)
#1009 CHINA_MASK  $ROOT/MASKS/v2014-07/China_mask.generic.1x1.nc                MASK     2000/1/1/0 C xy unitless 1  70/10/150/60
#1010 INDIA_MASK  $ROOT/MASKS/v2014-07/India_mask.generic.1x1.nc                MASK     2000/1/1/0 C xy unitless 1  67/7/99/39
############################################################################## 

### END SECTION MASKS ###

### END OF HEMCO INPUT FILE ###
#EOC
