This folder (runs/shared_inputs/aerosol) contains input files
for GEOS-Chem AEROSOL-ONLY simulations, namely:

(1) FAST-JX input files (symbolically linked from ../fast_jx)
(2) HEMCO configuration files
(3) A HISTORY.rc file for netCDF diagnostics

-- GEOS-Chem Support Team
   geos-chem-support@g.harvard.edu
   13 Feb 2018