##############################################################################
#####  Sample HISTORY.rc for unit testing new netCDF diagnostics         #####
#####  in GEOS-Chem "Classic" simulations.  This will schedule only      #####
#####  the advected species. (bmy, 8/2/17)                               #####
##############################################################################

# These tags are only used for GCHP
EXPID:  OutputDir/GCHP
EXPDSC: GEOS-Chem_devel
CoresPerNode: 6


COLLECTIONS: 'inst',
             ::
  inst.template:      '%y4%m2%d2.nc4',
  inst.subsetdims:     72 46 72
  inst.format:        'CFIO',
  inst.frequency:      002000,
  inst.duration:       240000,
  inst.mode:          'instantaneous',
  inst.fields:        'CHEM_SPC_?ADV?',     'GIGCchem'
                         ::
