##############################################################################
#####  Sample HISTORY.rc for unit testing new netCDF diagnostics         #####
#####  in GEOS-Chem "Classic" simulations.  This will schedule only      #####
#####  the advected species. (bmy, 8/2/17)                               #####
##############################################################################

# These tags are only used for GCHP
EXPID:  OutputDir/GCHP
EXPDSC: GEOS-Chem_devel
CoresPerNode: 6


COLLECTIONS: 'inst',
             ::
  inst.filename:      './GEOSChem.inst.%y4%m2%d2.nc4',
  inst.frequency:      002000,
  inst.duration:       240000,
  inst.mode:          'instantaneous',
  inst.fields:        'SpeciesConc__?ADV?', 'GIGCchem'
                       ::
