#------------------------------------------------------------------------------
#          Harvard University Atmospheric Chemistry Modeling Group            !
#------------------------------------------------------------------------------
#BOI
# !TITLE: GEOS-Chem-UnitTest Reference Manual
# !AUTHORS: GEOS-Chem Support Team
# !DATE: 29 Aug 2013
#EOI
#------------------------------------------------------------------------------
