This folder (runs/shared_inputs/benchmark) contains input files
for GEOS-Chem FULL-CHEMISTRY simulations, namely:

(1) HEMCO configuration files
(2) A HEMCO diagnostic files
(3) A HISTORY.rc file for netCDF diagnostics

-- GEOS-Chem Support Team
   geos-chem-support@as.harvard.edu
   13 Feb 2018