This file contains the chemistry input files for the UCX stratospheric-
tropospheric chemistry simulation.  We keep them here so that they can be 
symbolically linked to other directories.

29 May 2014
GEOS-Chem Support Team
geos-chem-support@as.harvard.edu