This folder (runs/shared_inputs/TransportTracers) contains input files
for GEOS-Chem Transport Tracer simulations, namely:

(1) HEMCO configuration files
(2) A HISTORY.rc file for netCDF diagnostics

-- GEOS-Chem Support Team
   geos-chem-support@as.harvard.edu
   13 Feb 2018