This folder (runs/shared_inputs/benchmark) contains input files
for GEOS-Chem BENCHMARK FULL-CHEMISTRY simulations, namely:

(1) FAST-JX input files      (symbolically linked from ../fast_jx)
(2) GCHP configuration files (symbolically linked from ../gchp   )
(3) HEMCO configuration files
(4) A HISTORY.rc file for netCDF diagnostics

-- GEOS-Chem Support Team
   geos-chem-support@as.harvard.edu
   13 Feb 2018