
EXPID:  OutputDir/GCHP
EXPDSC: GEOS-Chem_devel
CoresPerNode: 6


COLLECTIONS: 'center',
             ::
  center.template:  '%y4%m2%d2.nc4',
  center.format:    'CFIO',
  center.frequency:  010000
  center.duration:   010000
  center.mode:      'time-averaged'
  center.fields:    'SPC_NO      ',         'GIGCchem',
                    'SPC_O3      ',         'GIGCchem',
                    #'SpeciesConc_?ADV?',    'GIGCchem',
                    #'PbFromRnDecay',        'GIGCchem',
                    #'ProdBCPIfromBCPO',     'GIGCchem',
                    #'ProdOCPIfromOCPO',     'GIGCchem',
                    #'CloudConvFlux_?ADV?',  'GIGCchem',
                    #'AdvFluxZonal_?ADV?',   'GIGCchem',
                    #'AdvFluxMerid_?ADV?',   'GIGCchem',
                    #'AdvFluxVert_?ADV?',    'GIGCchem',
                    #'Met_Pedge',            'GIGCchem',
                    #'WetLossConv_?WET?',    'GIGCchem',
		    #'WetLossLS_?WET?',      'GIGCchem',
                    #'OHconcAfterChem',      'GIGCchem',
                    #'HO2concAfterChem',     'GIGCchem',
                    #'O1DconcAfterChem',     'GIGCchem',
                    #'O3PconcAfterChem',     'GIGCchem',
                    #'DryDepChm_?DRY?',      'GIGCchem',
                    #'DryDepMix_?DRY?',      'GIGCchem',
                    #'DryDepVel_?DRY?',      'GIGCchem',
                    #'Met_TropLev',          'GIGCchem',
		    #'Met_TropHt',           'GIGCchem',
                    #'Met_Tropp',            'GIGCchem',
                    #'Loss_?LOS?',           'GIGCchem',
                    #'Prod_?PRD?',           'GIGCchem',
                    #'Chem_phSav',           'GIGCchem',
                    #'Chem_HplusSav',        'GIGCchem',
                    #'Chem_WaterSav',        'GIGCchem',
                    #'Chem_SulRatSav',       'GIGCchem',
                    #'Chem_NaRatSav',        'GIGCchem',
                    #'Chem_AcidPurSav',      'GIGCchem',
                    #'Chem_BiSulSav',        'GIGCchem',
                    #'OpticalDepthDust',     'GIGCchem',
                    #'OpticalDepthDust550_bin1', 'GIGCchem',
                    #'OpticalDepthDust550_bin2', 'GIGCchem',
                    #'OpticalDepthDust550_bin3', 'GIGCchem',
                    #'OpticalDepthDust550_bin4', 'GIGCchem',
                    #'OpticalDepthDust550_bin5', 'GIGCchem',
                    #'OpticalDepthDust550_bin6', 'GIGCchem',
                    #'OpticalDepthDust550_bin7', 'GIGCchem',
  			  ::



