EXPID:  OutputDir/GCHP
EXPDSC: GEOS-Chem_devel
CoresPerNode: 6

#===================================================================
# Declare collection names and toggle on/off
#===================================================================
COLLECTIONS: 'SpeciesConc',
             'Aerosols',
             'CloudConvFlux',
             'ConcAfterChem',
             'DryDep',
             'JValues',
             'JValuesLocalNoon',
             'LevelEdgeDiags',      
             'ProdLoss',
             'StateChm',
             'StateMet',      
             'WetLossConv',
             'WetLossLS',
::
#===================================================================
# The rest of this file consists of collection definitions.
# Above collections whose declarations are commented out will be ignored.
# You can skip individual diagnostics by commenting them out.
#===================================================================
# Species concentrations (per advected species)
  SpeciesConc.template:       '%y4%m2%d2_%h2%n2z.nc4',
  SpeciesConc.format:         'CFIO',
  SpeciesConc.frequency:      010000
  SpeciesConc.duration:       010000
  SpeciesConc.mode:           'time-averaged'
  SpeciesConc.fields:         'SpeciesConc_O3                ', 'GIGCchem',
                              'SpeciesConc_PAN               ', 'GIGCchem',
                              'SpeciesConc_CO                ', 'GIGCchem',
                              'SpeciesConc_ALK4              ', 'GIGCchem',
                              'SpeciesConc_ISOP              ', 'GIGCchem',
                              'SpeciesConc_HNO3              ', 'GIGCchem',
                              'SpeciesConc_H2O2              ', 'GIGCchem',
                              'SpeciesConc_ACET              ', 'GIGCchem',
                              'SpeciesConc_MEK               ', 'GIGCchem',
                              'SpeciesConc_ALD2              ', 'GIGCchem',
                              'SpeciesConc_RCHO              ', 'GIGCchem',
                              'SpeciesConc_MVK               ', 'GIGCchem',
                              'SpeciesConc_MACR              ', 'GIGCchem',
                              'SpeciesConc_NPMN              ', 'GIGCchem',
                              'SpeciesConc_PPN               ', 'GIGCchem',
                              'SpeciesConc_R4N2              ', 'GIGCchem',
                              'SpeciesConc_PRPE              ', 'GIGCchem',
                              'SpeciesConc_C3H8              ', 'GIGCchem',
                              'SpeciesConc_CH2O              ', 'GIGCchem',
                              'SpeciesConc_C2H6              ', 'GIGCchem',
                              'SpeciesConc_N2O5              ', 'GIGCchem',
                              'SpeciesConc_HNO4              ', 'GIGCchem',
                              'SpeciesConc_MP                ', 'GIGCchem',
                              'SpeciesConc_DMS               ', 'GIGCchem',
                              'SpeciesConc_SO2               ', 'GIGCchem',
                              'SpeciesConc_SO4               ', 'GIGCchem',
                              'SpeciesConc_SO4s              ', 'GIGCchem',
                              'SpeciesConc_MSA               ', 'GIGCchem',
                              'SpeciesConc_NH3               ', 'GIGCchem',
                              'SpeciesConc_NH4               ', 'GIGCchem',
                              'SpeciesConc_NIT               ', 'GIGCchem',
                              'SpeciesConc_NITs              ', 'GIGCchem',
                              'SpeciesConc_BCPI              ', 'GIGCchem',
                              'SpeciesConc_OCPI              ', 'GIGCchem',
                              'SpeciesConc_BCPO              ', 'GIGCchem',
                              'SpeciesConc_OCPO              ', 'GIGCchem',
                              'SpeciesConc_DST1              ', 'GIGCchem',
                              'SpeciesConc_DST2              ', 'GIGCchem',
                              'SpeciesConc_DST3              ', 'GIGCchem',
                              'SpeciesConc_DST4              ', 'GIGCchem',
                              'SpeciesConc_SALA              ', 'GIGCchem',
                              'SpeciesConc_SALC              ', 'GIGCchem',
                              'SpeciesConc_Br2               ', 'GIGCchem',
                              'SpeciesConc_Br                ', 'GIGCchem',
                              'SpeciesConc_BrO               ', 'GIGCchem',
                              'SpeciesConc_HOBr              ', 'GIGCchem',
                              'SpeciesConc_HBr               ', 'GIGCchem',
                              'SpeciesConc_BrNO2             ', 'GIGCchem',
                              'SpeciesConc_BrNO3             ', 'GIGCchem',
                              'SpeciesConc_CHBr3             ', 'GIGCchem',
                              'SpeciesConc_CH2Br2            ', 'GIGCchem',
                              'SpeciesConc_CH3Br             ', 'GIGCchem',
                              'SpeciesConc_MPN               ', 'GIGCchem',
                              'SpeciesConc_ISOPND            ', 'GIGCchem',
                              'SpeciesConc_ISOPNB            ', 'GIGCchem',
                              'SpeciesConc_MOBA              ', 'GIGCchem',
                              'SpeciesConc_PROPNN            ', 'GIGCchem',
                              'SpeciesConc_HAC               ', 'GIGCchem',
                              'SpeciesConc_GLYC              ', 'GIGCchem',
                              'SpeciesConc_MVKN              ', 'GIGCchem',
                              'SpeciesConc_MACRN             ', 'GIGCchem',
                              'SpeciesConc_MAP               ', 'GIGCchem',
                              'SpeciesConc_NO2               ', 'GIGCchem',
                              'SpeciesConc_NO3               ', 'GIGCchem',
                              'SpeciesConc_HNO2              ', 'GIGCchem',
                              'SpeciesConc_BENZ              ', 'GIGCchem',
                              'SpeciesConc_TOLU              ', 'GIGCchem',
                              'SpeciesConc_XYLE              ', 'GIGCchem',
                              'SpeciesConc_MTPA              ', 'GIGCchem',
                              'SpeciesConc_LIMO              ', 'GIGCchem',
                              'SpeciesConc_MTPO              ', 'GIGCchem',
                              'SpeciesConc_TSOG1             ', 'GIGCchem',
                              'SpeciesConc_TSOG2             ', 'GIGCchem',
                              'SpeciesConc_TSOG3             ', 'GIGCchem',
                              'SpeciesConc_TSOG0             ', 'GIGCchem',
                              'SpeciesConc_TSOA1             ', 'GIGCchem',
                              'SpeciesConc_TSOA2             ', 'GIGCchem',
                              'SpeciesConc_TSOA3             ', 'GIGCchem',
                              'SpeciesConc_TSOA0             ', 'GIGCchem',
                              'SpeciesConc_ISOG1             ', 'GIGCchem',
                              'SpeciesConc_ISOG2             ', 'GIGCchem',
                              'SpeciesConc_ISOG3             ', 'GIGCchem',
                              'SpeciesConc_ISOA1             ', 'GIGCchem',
                              'SpeciesConc_ISOA2             ', 'GIGCchem',
                              'SpeciesConc_ISOA3             ', 'GIGCchem',
                              'SpeciesConc_ASOG1             ', 'GIGCchem',
                              'SpeciesConc_ASOG2             ', 'GIGCchem',
                              'SpeciesConc_ASOG3             ', 'GIGCchem',
                              'SpeciesConc_ASOAN             ', 'GIGCchem',
                              'SpeciesConc_ASOA1             ', 'GIGCchem',
                              'SpeciesConc_ASOA2             ', 'GIGCchem',
                              'SpeciesConc_ASOA3             ', 'GIGCchem',
                              'SpeciesConc_SOAP              ', 'GIGCchem',
                              'SpeciesConc_SOAS              ', 'GIGCchem',
                              'SpeciesConc_EOH               ', 'GIGCchem',
                              'SpeciesConc_MGLY              ', 'GIGCchem',
                              'SpeciesConc_GLYX              ', 'GIGCchem',
                              'SpeciesConc_ACTA              ', 'GIGCchem',
                              'SpeciesConc_HPALD             ', 'GIGCchem',
                              'SpeciesConc_DHDN              ', 'GIGCchem',
                              'SpeciesConc_ETHLN             ', 'GIGCchem',
                              'SpeciesConc_HCOOH             ', 'GIGCchem',
                              'SpeciesConc_IEPOXA            ', 'GIGCchem',
                              'SpeciesConc_IEPOXB            ', 'GIGCchem',
                              'SpeciesConc_IEPOXD            ', 'GIGCchem',
                              'SpeciesConc_ISN1              ', 'GIGCchem',
                              'SpeciesConc_RIPA              ', 'GIGCchem',
                              'SpeciesConc_RIPB              ', 'GIGCchem',
                              'SpeciesConc_RIPD              ', 'GIGCchem',
                              'SpeciesConc_IMAE              ', 'GIGCchem',
                              'SpeciesConc_SOAIE             ', 'GIGCchem',
                              'SpeciesConc_SOAME             ', 'GIGCchem',
                              'SpeciesConc_SOAGX             ', 'GIGCchem',
                              'SpeciesConc_SOAMG             ', 'GIGCchem',
                              'SpeciesConc_LVOC              ', 'GIGCchem',
                              'SpeciesConc_LVOCOA            ', 'GIGCchem',
                              'SpeciesConc_ISN1OG            ', 'GIGCchem',
                              'SpeciesConc_ISN1OA            ', 'GIGCchem',
                              'SpeciesConc_MONITS            ', 'GIGCchem',
                              'SpeciesConc_MONITU            ', 'GIGCchem',
                              'SpeciesConc_HONIT             ', 'GIGCchem',
                              'SpeciesConc_IONITA            ', 'GIGCchem',
                              'SpeciesConc_MONITA            ', 'GIGCchem',
                              'SpeciesConc_INDIOL            ', 'GIGCchem',
                              'SpeciesConc_IPMN              ', 'GIGCchem',
                              'SpeciesConc_HC187             ', 'GIGCchem',
                              'SpeciesConc_N2O               ', 'GIGCchem',
                              'SpeciesConc_OCS               ', 'GIGCchem',
                              'SpeciesConc_CH4               ', 'GIGCchem',
                              'SpeciesConc_BrCl              ', 'GIGCchem',
                              'SpeciesConc_HCl               ', 'GIGCchem',
                              'SpeciesConc_CCl4              ', 'GIGCchem',
                              'SpeciesConc_CH3Cl             ', 'GIGCchem',
                              'SpeciesConc_CH3CCl3           ', 'GIGCchem',
                              'SpeciesConc_CFC113            ', 'GIGCchem',
                              'SpeciesConc_CFC114            ', 'GIGCchem',
                              'SpeciesConc_CFC115            ', 'GIGCchem',
                              'SpeciesConc_HCFC123           ', 'GIGCchem',
                              'SpeciesConc_HCFC141b          ', 'GIGCchem',
                              'SpeciesConc_HCFC142b          ', 'GIGCchem',
                              'SpeciesConc_CFC11             ', 'GIGCchem',
                              'SpeciesConc_CFC12             ', 'GIGCchem',
                              'SpeciesConc_HCFC22            ', 'GIGCchem',
                              'SpeciesConc_H1211             ', 'GIGCchem',
                              'SpeciesConc_H1301             ', 'GIGCchem',
                              'SpeciesConc_H2402             ', 'GIGCchem',
                              'SpeciesConc_Cl                ', 'GIGCchem',
                              'SpeciesConc_ClO               ', 'GIGCchem',
                              'SpeciesConc_HOCl              ', 'GIGCchem',
                              'SpeciesConc_ClNO3             ', 'GIGCchem',
                              'SpeciesConc_ClNO2             ', 'GIGCchem',
                              'SpeciesConc_ClOO              ', 'GIGCchem',
                              'SpeciesConc_OClO              ', 'GIGCchem',
                              'SpeciesConc_Cl2               ', 'GIGCchem',
                              'SpeciesConc_Cl2O2             ', 'GIGCchem',
                              'SpeciesConc_H2O               ', 'GIGCchem',
                              'SpeciesConc_BrSALA            ', 'GIGCchem',
                              'SpeciesConc_BrSALC            ', 'GIGCchem',
                              'SpeciesConc_CHCl3             ', 'GIGCchem',
                              'SpeciesConc_CH2Cl2            ', 'GIGCchem', 
                              'SpeciesConc_CH3I              ', 'GIGCchem', 
                              'SpeciesConc_CH2I2             ', 'GIGCchem', 
                              'SpeciesConc_CH2ICl            ', 'GIGCchem', 
                              'SpeciesConc_CH2IBr            ', 'GIGCchem', 
                              'SpeciesConc_HOI               ', 'GIGCchem', 
                              'SpeciesConc_I2                ', 'GIGCchem', 
                              'SpeciesConc_IBr               ', 'GIGCchem', 
                              'SpeciesConc_ICl               ', 'GIGCchem', 
                              'SpeciesConc_I                 ', 'GIGCchem', 
                              'SpeciesConc_IO                ', 'GIGCchem', 
                              'SpeciesConc_HI                ', 'GIGCchem', 
                              'SpeciesConc_OIO               ', 'GIGCchem', 
                              'SpeciesConc_INO               ', 'GIGCchem', 
                              'SpeciesConc_IONO              ', 'GIGCchem', 
                              'SpeciesConc_IONO2             ', 'GIGCchem', 
                              'SpeciesConc_I2O2              ', 'GIGCchem', 
                              'SpeciesConc_I2O3              ', 'GIGCchem', 
                              'SpeciesConc_I2O4              ', 'GIGCchem', 
                              'SpeciesConc_ISALA             ', 'GIGCchem', 
                              'SpeciesConc_ISALC             ', 'GIGCchem', 
                              'SpeciesConc_AERI              ', 'GIGCchem', 
::
#===================================================================
# Aerosol optical depth, surface area, number density, and hygroscopic growth
  Aerosols.template:          '%y4%m2%d2_%h2%n2z.nc4',
  Aerosols.format:            'CFIO',
  Aerosols.frequency:         010000
  Aerosols.duration:          010000
  Aerosols.mode:              'time-averaged'
  Aerosols.fields:            'AODDust                       ', 'GIGCchem',
                              'AODDustWL1_bin1               ', 'GIGCchem',
                              'AODDustWL1_bin2               ', 'GIGCchem',
                              'AODDustWL1_bin3               ', 'GIGCchem',
                              'AODDustWL1_bin4               ', 'GIGCchem',
                              'AODDustWL1_bin5               ', 'GIGCchem',
                              'AODDustWL1_bin6               ', 'GIGCchem',
                              'AODDustWL1_bin7               ', 'GIGCchem',
                              'AODHygWL1_SO4                 ', 'GIGCchem',
                              'AODHygWL1_BCPI                ', 'GIGCchem',
                              'AODHygWL1_OCPI                ', 'GIGCchem',
                              'AODHygWL1_SALA                ', 'GIGCchem',
                              'AODHygWL1_SALC                ', 'GIGCchem',
                              'AODSOAfromAqIsopreneWL1       ', 'GIGCchem',
                              'AODStratLiquidAerWL1          ', 'GIGCchem',
                              'AODPolarStratCloudWL1         ', 'GIGCchem',
                              'AerHygroscopicGrowth_SO4      ', 'GIGCchem',
                              'AerHygroscopicGrowth_BCPI     ', 'GIGCchem',
                              'AerHygroscopicGrowth_OCPI     ', 'GIGCchem',
                              'AerHygroscopicGrowth_SALA     ', 'GIGCchem',
                              'AerHygroscopicGrowth_SALC     ', 'GIGCchem',
                              'AerNumDensityStratLiquid      ', 'GIGCchem',
                              'AerNumDensityStratParticulate ', 'GIGCchem',
                              'AerAqueousVolume              ', 'GIGCchem',
                              'AerSurfAreaDust               ', 'GIGCchem',
                              'AerSurfAreaHyg_SO4            ', 'GIGCchem',
                              'AerSurfAreaHyg_BCPI           ', 'GIGCchem',
                              'AerSurfAreaHyg_OCPI           ', 'GIGCchem',
                              'AerSurfAreaHyg_SALA           ', 'GIGCchem',
                              'AerSurfAreaHyg_SALC           ', 'GIGCchem',
                              'AerSurfAreaStratLiquid        ', 'GIGCchem',
                              'AerSurfAreaPolarStratCloud    ', 'GIGCchem',
                              'Chem_AeroAreaMDUST1           ', 'GIGCchem',
                              'Chem_AeroAreaMDUST2           ', 'GIGCchem',
                              'Chem_AeroAreaMDUST3           ', 'GIGCchem',
                              'Chem_AeroAreaMDUST4           ', 'GIGCchem',
                              'Chem_AeroAreaMDUST5           ', 'GIGCchem',
                              'Chem_AeroAreaMDUST6           ', 'GIGCchem',
                              'Chem_AeroAreaMDUST7           ', 'GIGCchem',
                              'Chem_AeroAreaSULF             ', 'GIGCchem',
                              'Chem_AeroAreaBC               ', 'GIGCchem',
                              'Chem_AeroAreaOC               ', 'GIGCchem',
                              'Chem_AeroAreaSSA              ', 'GIGCchem',
                              'Chem_AeroAreaSSC              ', 'GIGCchem',
                              'Chem_AeroAreaBGSULF           ', 'GIGCchem',
                              'Chem_AeroAreaICEI             ', 'GIGCchem',
                              'Chem_AeroRadiMDUST1           ', 'GIGCchem',
                              'Chem_AeroRadiMDUST2           ', 'GIGCchem',
                              'Chem_AeroRadiMDUST3           ', 'GIGCchem',
                              'Chem_AeroRadiMDUST4           ', 'GIGCchem',
                              'Chem_AeroRadiMDUST5           ', 'GIGCchem',
                              'Chem_AeroRadiMDUST6           ', 'GIGCchem',
                              'Chem_AeroRadiMDUST7           ', 'GIGCchem',
                              'Chem_AeroRadiSULF             ', 'GIGCchem',
                              'Chem_AeroRadiBC               ', 'GIGCchem',
                              'Chem_AeroRadiOC               ', 'GIGCchem',
                              'Chem_AeroRadiSSA              ', 'GIGCchem',
                              'Chem_AeroRadiSSC              ', 'GIGCchem',
                              'Chem_AeroRadiBGSULF           ', 'GIGCchem',
                              'Chem_AeroRadiICEI             ', 'GIGCchem',
                              'Chem_WetAeroAreaMDUST1        ', 'GIGCchem',
                              'Chem_WetAeroAreaMDUST2        ', 'GIGCchem',
                              'Chem_WetAeroAreaMDUST3        ', 'GIGCchem',
                              'Chem_WetAeroAreaMDUST4        ', 'GIGCchem',
                              'Chem_WetAeroAreaMDUST5        ', 'GIGCchem',
                              'Chem_WetAeroAreaMDUST6        ', 'GIGCchem',
                              'Chem_WetAeroAreaMDUST7        ', 'GIGCchem',
                              'Chem_WetAeroAreaSULF          ', 'GIGCchem',
                              'Chem_WetAeroAreaBC            ', 'GIGCchem',
                              'Chem_WetAeroAreaOC            ', 'GIGCchem',
                              'Chem_WetAeroAreaSSA           ', 'GIGCchem',
                              'Chem_WetAeroAreaSSC           ', 'GIGCchem',
                              'Chem_WetAeroAreaBGSULF        ', 'GIGCchem',
                              'Chem_WetAeroAreaICEI          ', 'GIGCchem',
                              'Chem_WetAeroRadiMDUST1        ', 'GIGCchem',
                              'Chem_WetAeroRadiMDUST2        ', 'GIGCchem',
                              'Chem_WetAeroRadiMDUST3        ', 'GIGCchem',
                              'Chem_WetAeroRadiMDUST4        ', 'GIGCchem',
                              'Chem_WetAeroRadiMDUST5        ', 'GIGCchem',
                              'Chem_WetAeroRadiMDUST6        ', 'GIGCchem',
                              'Chem_WetAeroRadiMDUST7        ', 'GIGCchem',
                              'Chem_WetAeroRadiSULF          ', 'GIGCchem',
                              'Chem_WetAeroRadiBC            ', 'GIGCchem',
                              'Chem_WetAeroRadiOC            ', 'GIGCchem',
                              'Chem_WetAeroRadiSSA           ', 'GIGCchem',
                              'Chem_WetAeroRadiSSC           ', 'GIGCchem',
                              'Chem_WetAeroRadiBGSULF        ', 'GIGCchem',
                              'Chem_WetAeroRadiICEI          ', 'GIGCchem',
                              'Chem_StatePSC                 ', 'GIGCchem',
                              'Chem_KhetiSLAN2O5H2O          ', 'GIGCchem',
                              'Chem_KhetiSLAN2O5HCl          ', 'GIGCchem',
                              'Chem_KhetiSLAClNO3H2O         ', 'GIGCchem',
                              'Chem_KhetiSLAClNO3HCl         ', 'GIGCchem',
                              'Chem_KhetiSLAClNO3HBr         ', 'GIGCchem',
                              'Chem_KhetiSLABrNO3H2O         ', 'GIGCchem',
                              'Chem_KhetiSLABrNO3HCl         ', 'GIGCchem',
                              'Chem_KhetiSLAHOClHCl          ', 'GIGCchem',
                              'Chem_KhetiSLAHOClHBr          ', 'GIGCchem',
                              'Chem_KhetiSLAHOBrHCl          ', 'GIGCchem',
                              'Chem_KhetiSLAHOBrHBr          ', 'GIGCchem',
::
#===================================================================
# Cloud convective flux (per advected species)
  CloudConvFlux.template:     '%y4%m2%d2_%h2%n2z.nc4',
  CloudConvFlux.format:       'CFIO',
  CloudConvFlux.frequency:    010000
  CloudConvFlux.duration:     010000
  CloudConvFlux.mode:         'time-averaged'
  CloudConvFlux.fields:       'CloudConvFlux_O3              ', 'GIGCchem',
                              'CloudConvFlux_PAN             ', 'GIGCchem',
                              'CloudConvFlux_CO              ', 'GIGCchem',
                              'CloudConvFlux_ALK4            ', 'GIGCchem',
                              'CloudConvFlux_ISOP            ', 'GIGCchem',
                              'CloudConvFlux_HNO3            ', 'GIGCchem',
                              'CloudConvFlux_H2O2            ', 'GIGCchem',
                              'CloudConvFlux_ACET            ', 'GIGCchem',
                              'CloudConvFlux_MEK             ', 'GIGCchem',
                              'CloudConvFlux_ALD2            ', 'GIGCchem',
                              'CloudConvFlux_RCHO            ', 'GIGCchem',
                              'CloudConvFlux_MVK             ', 'GIGCchem',
                              'CloudConvFlux_MACR            ', 'GIGCchem',
                              'CloudConvFlux_NPMN            ', 'GIGCchem',
                              'CloudConvFlux_PPN             ', 'GIGCchem',
                              'CloudConvFlux_R4N2            ', 'GIGCchem',
                              'CloudConvFlux_PRPE            ', 'GIGCchem',
                              'CloudConvFlux_C3H8            ', 'GIGCchem',
                              'CloudConvFlux_CH2O            ', 'GIGCchem',
                              'CloudConvFlux_C2H6            ', 'GIGCchem',
                              'CloudConvFlux_N2O5            ', 'GIGCchem',
                              'CloudConvFlux_HNO4            ', 'GIGCchem',
                              'CloudConvFlux_MP              ', 'GIGCchem',
                              'CloudConvFlux_DMS             ', 'GIGCchem',
                              'CloudConvFlux_SO2             ', 'GIGCchem',
                              'CloudConvFlux_SO4             ', 'GIGCchem',
                              'CloudConvFlux_SO4s            ', 'GIGCchem',
                              'CloudConvFlux_MSA             ', 'GIGCchem',
                              'CloudConvFlux_NH3             ', 'GIGCchem',
                              'CloudConvFlux_NH4             ', 'GIGCchem',
                              'CloudConvFlux_NIT             ', 'GIGCchem',
                              'CloudConvFlux_NITs            ', 'GIGCchem',
                              'CloudConvFlux_BCPI            ', 'GIGCchem',
                              'CloudConvFlux_OCPI            ', 'GIGCchem',
                              'CloudConvFlux_BCPO            ', 'GIGCchem',
                              'CloudConvFlux_OCPO            ', 'GIGCchem',
                              'CloudConvFlux_DST1            ', 'GIGCchem',
                              'CloudConvFlux_DST2            ', 'GIGCchem',
                              'CloudConvFlux_DST3            ', 'GIGCchem',
                              'CloudConvFlux_DST4            ', 'GIGCchem',
                              'CloudConvFlux_SALA            ', 'GIGCchem',
                              'CloudConvFlux_SALC            ', 'GIGCchem',
                              'CloudConvFlux_Br2             ', 'GIGCchem',
                              'CloudConvFlux_Br              ', 'GIGCchem',
                              'CloudConvFlux_BrO             ', 'GIGCchem',
                              'CloudConvFlux_HOBr            ', 'GIGCchem',
                              'CloudConvFlux_HBr             ', 'GIGCchem',
                              'CloudConvFlux_BrNO2           ', 'GIGCchem',
                              'CloudConvFlux_BrNO3           ', 'GIGCchem',
                              'CloudConvFlux_CHBr3           ', 'GIGCchem',
                              'CloudConvFlux_CH2Br2          ', 'GIGCchem',
                              'CloudConvFlux_CH3Br           ', 'GIGCchem',
                              'CloudConvFlux_MPN             ', 'GIGCchem',
                              'CloudConvFlux_ISOPND          ', 'GIGCchem',
                              'CloudConvFlux_ISOPNB          ', 'GIGCchem',
                              'CloudConvFlux_MOBA            ', 'GIGCchem',
                              'CloudConvFlux_PROPNN          ', 'GIGCchem',
                              'CloudConvFlux_HAC             ', 'GIGCchem',
                              'CloudConvFlux_GLYC            ', 'GIGCchem',
                              'CloudConvFlux_MVKN            ', 'GIGCchem',
                              'CloudConvFlux_MACRN           ', 'GIGCchem',
                              'CloudConvFlux_MAP             ', 'GIGCchem',
                              'CloudConvFlux_NO2             ', 'GIGCchem',
                              'CloudConvFlux_NO3             ', 'GIGCchem',
                              'CloudConvFlux_HNO2            ', 'GIGCchem',
                              'CloudConvFlux_BENZ            ', 'GIGCchem',
                              'CloudConvFlux_TOLU            ', 'GIGCchem',
                              'CloudConvFlux_XYLE            ', 'GIGCchem',
                              'CloudConvFlux_MTPA            ', 'GIGCchem',
                              'CloudConvFlux_LIMO            ', 'GIGCchem',
                              'CloudConvFlux_MTPO            ', 'GIGCchem',
                              'CloudConvFlux_TSOG1           ', 'GIGCchem',
                              'CloudConvFlux_TSOG2           ', 'GIGCchem',
                              'CloudConvFlux_TSOG3           ', 'GIGCchem',
                              'CloudConvFlux_TSOG0           ', 'GIGCchem',
                              'CloudConvFlux_TSOA1           ', 'GIGCchem',
                              'CloudConvFlux_TSOA2           ', 'GIGCchem',
                              'CloudConvFlux_TSOA3           ', 'GIGCchem',
                              'CloudConvFlux_TSOA0           ', 'GIGCchem',
                              'CloudConvFlux_ISOG1           ', 'GIGCchem',
                              'CloudConvFlux_ISOG2           ', 'GIGCchem',
                              'CloudConvFlux_ISOG3           ', 'GIGCchem',
                              'CloudConvFlux_ISOA1           ', 'GIGCchem',
                              'CloudConvFlux_ISOA2           ', 'GIGCchem',
                              'CloudConvFlux_ISOA3           ', 'GIGCchem',
                              'CloudConvFlux_ASOG1           ', 'GIGCchem',
                              'CloudConvFlux_ASOG2           ', 'GIGCchem',
                              'CloudConvFlux_ASOG3           ', 'GIGCchem',
                              'CloudConvFlux_ASOAN           ', 'GIGCchem',
                              'CloudConvFlux_ASOA1           ', 'GIGCchem',
                              'CloudConvFlux_ASOA2           ', 'GIGCchem',
                              'CloudConvFlux_ASOA3           ', 'GIGCchem',
                              'CloudConvFlux_SOAP            ', 'GIGCchem',
                              'CloudConvFlux_SOAS            ', 'GIGCchem',
                              'CloudConvFlux_EOH             ', 'GIGCchem',
                              'CloudConvFlux_MGLY            ', 'GIGCchem',
                              'CloudConvFlux_GLYX            ', 'GIGCchem',
                              'CloudConvFlux_ACTA            ', 'GIGCchem',
                              'CloudConvFlux_HPALD           ', 'GIGCchem',
                              'CloudConvFlux_DHDN            ', 'GIGCchem',
                              'CloudConvFlux_ETHLN           ', 'GIGCchem',
                              'CloudConvFlux_HCOOH           ', 'GIGCchem',
                              'CloudConvFlux_IEPOXA          ', 'GIGCchem',
                              'CloudConvFlux_IEPOXB          ', 'GIGCchem',
                              'CloudConvFlux_IEPOXD          ', 'GIGCchem',
                              'CloudConvFlux_ISN1            ', 'GIGCchem',
                              'CloudConvFlux_RIPA            ', 'GIGCchem',
                              'CloudConvFlux_RIPB            ', 'GIGCchem',
                              'CloudConvFlux_RIPD            ', 'GIGCchem',
                              'CloudConvFlux_IMAE            ', 'GIGCchem',
                              'CloudConvFlux_SOAIE           ', 'GIGCchem',
                              'CloudConvFlux_SOAME           ', 'GIGCchem',
                              'CloudConvFlux_SOAGX           ', 'GIGCchem',
                              'CloudConvFlux_SOAMG           ', 'GIGCchem',
                              'CloudConvFlux_LVOC            ', 'GIGCchem',
                              'CloudConvFlux_LVOCOA          ', 'GIGCchem',
                              'CloudConvFlux_ISN1OG          ', 'GIGCchem',
                              'CloudConvFlux_ISN1OA          ', 'GIGCchem',
                              'CloudConvFlux_MONITS          ', 'GIGCchem',
                              'CloudConvFlux_MONITU          ', 'GIGCchem',
                              'CloudConvFlux_HONIT           ', 'GIGCchem',
                              'CloudConvFlux_IONITA          ', 'GIGCchem',
                              'CloudConvFlux_MONITA          ', 'GIGCchem',
                              'CloudConvFlux_INDIOL          ', 'GIGCchem',
                              'CloudConvFlux_IPMN            ', 'GIGCchem',
                              'CloudConvFlux_HC187           ', 'GIGCchem',
                              'CloudConvFlux_N2O             ', 'GIGCchem',
                              'CloudConvFlux_OCS             ', 'GIGCchem',
                              'CloudConvFlux_CH4             ', 'GIGCchem',
                              'CloudConvFlux_BrCl            ', 'GIGCchem',
                              'CloudConvFlux_HCl             ', 'GIGCchem',
                              'CloudConvFlux_CCl4            ', 'GIGCchem',
                              'CloudConvFlux_CH3Cl           ', 'GIGCchem',
                              'CloudConvFlux_CH3CCl3         ', 'GIGCchem',
                              'CloudConvFlux_CFC113          ', 'GIGCchem',
                              'CloudConvFlux_CFC114          ', 'GIGCchem',
                              'CloudConvFlux_CFC115          ', 'GIGCchem',
                              'CloudConvFlux_HCFC123         ', 'GIGCchem',
                              'CloudConvFlux_HCFC141b        ', 'GIGCchem',
                              'CloudConvFlux_HCFC142b        ', 'GIGCchem',
                              'CloudConvFlux_CFC11           ', 'GIGCchem',
                              'CloudConvFlux_CFC12           ', 'GIGCchem',
                              'CloudConvFlux_HCFC22          ', 'GIGCchem',
                              'CloudConvFlux_H1211           ', 'GIGCchem',
                              'CloudConvFlux_H1301           ', 'GIGCchem',
                              'CloudConvFlux_H2402           ', 'GIGCchem',
                              'CloudConvFlux_Cl              ', 'GIGCchem',
                              'CloudConvFlux_ClO             ', 'GIGCchem',
                              'CloudConvFlux_HOCl            ', 'GIGCchem',
                              'CloudConvFlux_ClNO3           ', 'GIGCchem',
                              'CloudConvFlux_ClNO2           ', 'GIGCchem',
                              'CloudConvFlux_ClOO            ', 'GIGCchem',
                              'CloudConvFlux_OClO            ', 'GIGCchem',
                              'CloudConvFlux_Cl2             ', 'GIGCchem',
                              'CloudConvFlux_Cl2O2           ', 'GIGCchem',
                              'CloudConvFlux_H2O             ', 'GIGCchem',
                              'CloudConvFlux_BrSALA          ', 'GIGCchem',
                              'CloudConvFlux_BrSALC          ', 'GIGCchem',
                              'CloudConvFlux_CHCl3           ', 'GIGCchem',
                              'CloudConvFlux_CH2Cl2          ', 'GIGCchem',
                              'CloudConvFlux_CH3I            ', 'GIGCchem',
                              'CloudConvFlux_CH2I2           ', 'GIGCchem',
                              'CloudConvFlux_CH2ICl          ', 'GIGCchem',
                              'CloudConvFlux_CH2IBr          ', 'GIGCchem',
                              'CloudConvFlux_HOI             ', 'GIGCchem',
                              'CloudConvFlux_I2              ', 'GIGCchem',
                              'CloudConvFlux_IBr             ', 'GIGCchem',
                              'CloudConvFlux_ICl             ', 'GIGCchem',
                              'CloudConvFlux_I               ', 'GIGCchem',
                              'CloudConvFlux_IO              ', 'GIGCchem',
                              'CloudConvFlux_HI              ', 'GIGCchem',
                              'CloudConvFlux_OIO             ', 'GIGCchem',
                              'CloudConvFlux_INO             ', 'GIGCchem',
                              'CloudConvFlux_IONO            ', 'GIGCchem',
                              'CloudConvFlux_IONO2           ', 'GIGCchem',
                              'CloudConvFlux_I2O2            ', 'GIGCchem',
                              'CloudConvFlux_I2O3            ', 'GIGCchem',
                              'CloudConvFlux_I2O4            ', 'GIGCchem',
                              'CloudConvFlux_ISALA           ', 'GIGCchem',
                              'CloudConvFlux_ISALC           ', 'GIGCchem',
                              'CloudConvFlux_AERI            ', 'GIGCchem',
::
#===================================================================
# Concentrations after chemistry
  ConcAfterChem.template:     '%y4%m2%d2_%h2%n2z.nc4',
  ConcAfterChem.format:       'CFIO',
  ConcAfterChem.frequency:    010000
  ConcAfterChem.duration:     010000
  ConcAfterChem.mode:         'time-averaged'
  ConcAfterChem.fields:       'OHconcAfterChem               ', 'GIGCchem',  
                              'HO2concAfterChem              ', 'GIGCchem',  
                              'O1DconcAfterChem              ', 'GIGCchem',  
                              'O3PconcAfterChem              ', 'GIGCchem',  
::
#===================================================================
# Dry deposition flux velocity (per dry deposited species)
  DryDep.template:            '%y4%m2%d2_%h2%n2z.nc4',
  DryDep.format:              'CFIO',
  DryDep.frequency:           010000
  DryDep.duration:            010000
  DryDep.mode:                'time-averaged'
  DryDep.fields:              'DryDepVel_AERI                ', 'GIGCchem',
                              'DryDepVel_ISALC               ', 'GIGCchem',
                              'DryDepVel_ISALA               ', 'GIGCchem',
                              'DryDepVel_I2O4                ', 'GIGCchem',
                              'DryDepVel_I2O3                ', 'GIGCchem',
                              'DryDepVel_I2O2                ', 'GIGCchem',
                              'DryDepVel_IONO2               ', 'GIGCchem',
                              'DryDepVel_IONO                ', 'GIGCchem',
                              'DryDepVel_HI                  ', 'GIGCchem',
                              'DryDepVel_ICL                 ', 'GIGCchem',
                              'DryDepVel_IBR                 ', 'GIGCchem',
                              'DryDepVel_I2                  ', 'GIGCchem',
                              'DryDepVel_HOI                 ', 'GIGCchem',
                              'DryDepVel_BRSALC              ', 'GIGCchem',
                              'DryDepVel_BRSALA              ', 'GIGCchem',
                              'DryDepVel_CLNO3               ', 'GIGCchem',
                              'DryDepVel_HOCL                ', 'GIGCchem',
                              'DryDepVel_HCL                 ', 'GIGCchem',
                              'DryDepVel_HC187               ', 'GIGCchem',
                              'DryDepVel_IPMN                ', 'GIGCchem',
                              'DryDepVel_INDIOL              ', 'GIGCchem',
                              'DryDepVel_MONITA              ', 'GIGCchem',
                              'DryDepVel_IONITA              ', 'GIGCchem',
                              'DryDepVel_HONIT               ', 'GIGCchem',
                              'DryDepVel_MONITU              ', 'GIGCchem',
                              'DryDepVel_MONITS              ', 'GIGCchem',
                              'DryDepVel_ISN1OA              ', 'GIGCchem',
                              'DryDepVel_ISN1OG              ', 'GIGCchem',
                              'DryDepVel_LVOCOA              ', 'GIGCchem',
                              'DryDepVel_LVOC                ', 'GIGCchem',
                              'DryDepVel_SOAMG               ', 'GIGCchem',
                              'DryDepVel_SOAGX               ', 'GIGCchem',
                              'DryDepVel_SOAME               ', 'GIGCchem',
                              'DryDepVel_SOAIE               ', 'GIGCchem',
                              'DryDepVel_IMAE                ', 'GIGCchem',
                              'DryDepVel_RIPD                ', 'GIGCchem',
                              'DryDepVel_RIPB                ', 'GIGCchem',
                              'DryDepVel_RIPA                ', 'GIGCchem',
                              'DryDepVel_ISN1                ', 'GIGCchem',
                              'DryDepVel_IEPOXD              ', 'GIGCchem',
                              'DryDepVel_IEPOXB              ', 'GIGCchem',
                              'DryDepVel_IEPOXA              ', 'GIGCchem',
                              'DryDepVel_HCOOH               ', 'GIGCchem',
                              'DryDepVel_ETHLN               ', 'GIGCchem',
                              'DryDepVel_DHDN                ', 'GIGCchem',
                              'DryDepVel_HPALD               ', 'GIGCchem',
                              'DryDepVel_ACTA                ', 'GIGCchem',
                              'DryDepVel_GLYX                ', 'GIGCchem',
                              'DryDepVel_MGLY                ', 'GIGCchem',
                              'DryDepVel_EOH                 ', 'GIGCchem',
                              'DryDepVel_SOAS                ', 'GIGCchem',
                              'DryDepVel_ASOA3               ', 'GIGCchem',
                              'DryDepVel_ASOA2               ', 'GIGCchem',
                              'DryDepVel_ASOA1               ', 'GIGCchem',
                              'DryDepVel_ASOAN               ', 'GIGCchem',
                              'DryDepVel_ASOG3               ', 'GIGCchem',
                              'DryDepVel_ASOG2               ', 'GIGCchem',
                              'DryDepVel_ASOG1               ', 'GIGCchem',
                              'DryDepVel_ISOA3               ', 'GIGCchem',
                              'DryDepVel_ISOA2               ', 'GIGCchem',
                              'DryDepVel_ISOA1               ', 'GIGCchem',
                              'DryDepVel_ISOG3               ', 'GIGCchem',
                              'DryDepVel_ISOG2               ', 'GIGCchem',
                              'DryDepVel_ISOG1               ', 'GIGCchem',
                              'DryDepVel_TSOA0               ', 'GIGCchem',
                              'DryDepVel_TSOA3               ', 'GIGCchem',
                              'DryDepVel_TSOA2               ', 'GIGCchem',
                              'DryDepVel_TSOA1               ', 'GIGCchem',
                              'DryDepVel_TSOG0               ', 'GIGCchem',
                              'DryDepVel_TSOG3               ', 'GIGCchem',
                              'DryDepVel_TSOG2               ', 'GIGCchem',
                              'DryDepVel_TSOG1               ', 'GIGCchem',
                              'DryDepVel_MTPO                ', 'GIGCchem',
                              'DryDepVel_LIMO                ', 'GIGCchem',
                              'DryDepVel_MTPA                ', 'GIGCchem',
                              'DryDepVel_NO2                 ', 'GIGCchem',
                              'DryDepVel_MAP                 ', 'GIGCchem',
                              'DryDepVel_MACRN               ', 'GIGCchem',
                              'DryDepVel_MVKN                ', 'GIGCchem',
                              'DryDepVel_GLYC                ', 'GIGCchem',
                              'DryDepVel_HAC                 ', 'GIGCchem',
                              'DryDepVel_PROPNN              ', 'GIGCchem',
                              'DryDepVel_ISOPNB              ', 'GIGCchem',
                              'DryDepVel_ISOPND              ', 'GIGCchem',
                              'DryDepVel_BRNO3               ', 'GIGCchem',
                              'DryDepVel_HBR                 ', 'GIGCchem',
                              'DryDepVel_HOBR                ', 'GIGCchem',
                              'DryDepVel_BR2                 ', 'GIGCchem',
                              'DryDepVel_SALC                ', 'GIGCchem',
                              'DryDepVel_SALA                ', 'GIGCchem',
                              'DryDepVel_DST4                ', 'GIGCchem',
                              'DryDepVel_DST3                ', 'GIGCchem',
                              'DryDepVel_DST2                ', 'GIGCchem',
                              'DryDepVel_DST1                ', 'GIGCchem',
                              'DryDepVel_OCPO                ', 'GIGCchem',
                              'DryDepVel_BCPO                ', 'GIGCchem',
                              'DryDepVel_OCPI                ', 'GIGCchem',
                              'DryDepVel_BCPI                ', 'GIGCchem',
                              'DryDepVel_NITS                ', 'GIGCchem',
                              'DryDepVel_NIT                 ', 'GIGCchem',
                              'DryDepVel_NH4                 ', 'GIGCchem',
                              'DryDepVel_NH3                 ', 'GIGCchem',
                              'DryDepVel_MSA                 ', 'GIGCchem',
                              'DryDepVel_SO4S                ', 'GIGCchem',
                              'DryDepVel_SO4                 ', 'GIGCchem',
                              'DryDepVel_SO2                 ', 'GIGCchem',
                              'DryDepVel_N2O5                ', 'GIGCchem',
                              'DryDepVel_CH2O                ', 'GIGCchem',
                              'DryDepVel_R4N2                ', 'GIGCchem',
                              'DryDepVel_PPN                 ', 'GIGCchem',
                              'DryDepVel_NPMN                ', 'GIGCchem',
                              'DryDepVel_MACR                ', 'GIGCchem',
                              'DryDepVel_MVK                 ', 'GIGCchem',
                              'DryDepVel_ALD2                ', 'GIGCchem',
                              'DryDepVel_ACET                ', 'GIGCchem',
                              'DryDepVel_H2O2                ', 'GIGCchem',
                              'DryDepVel_HNO3                ', 'GIGCchem',
                              'DryDepVel_PAN                 ', 'GIGCchem',
                              'DryDepVel_O3                  ', 'GIGCchem',
                              'DryDep_AERI                   ', 'GIGCchem',
                              'DryDep_ISALC                  ', 'GIGCchem',
                              'DryDep_ISALA                  ', 'GIGCchem',
                              'DryDep_I2O4                   ', 'GIGCchem',
                              'DryDep_I2O3                   ', 'GIGCchem',
                              'DryDep_I2O2                   ', 'GIGCchem',
                              'DryDep_IONO2                  ', 'GIGCchem',
                              'DryDep_IONO                   ', 'GIGCchem',
                              'DryDep_HI                     ', 'GIGCchem',
                              'DryDep_ICL                    ', 'GIGCchem',
                              'DryDep_IBR                    ', 'GIGCchem',
                              'DryDep_I2                     ', 'GIGCchem',
                              'DryDep_HOI                    ', 'GIGCchem',
                              'DryDep_BRSALC                 ', 'GIGCchem',
                              'DryDep_BRSALA                 ', 'GIGCchem',
                              'DryDep_CLNO3                  ', 'GIGCchem',
                              'DryDep_HOCL                   ', 'GIGCchem',
                              'DryDep_HCL                    ', 'GIGCchem',
                              'DryDep_HC187                  ', 'GIGCchem',
                              'DryDep_IPMN                   ', 'GIGCchem',
                              'DryDep_INDIOL                 ', 'GIGCchem',
                              'DryDep_MONITA                 ', 'GIGCchem',
                              'DryDep_IONITA                 ', 'GIGCchem',
                              'DryDep_HONIT                  ', 'GIGCchem',
                              'DryDep_MONITU                 ', 'GIGCchem',
                              'DryDep_MONITS                 ', 'GIGCchem',
                              'DryDep_ISN1OA                 ', 'GIGCchem',
                              'DryDep_ISN1OG                 ', 'GIGCchem',
                              'DryDep_LVOCOA                 ', 'GIGCchem',
                              'DryDep_LVOC                   ', 'GIGCchem',
                              'DryDep_SOAMG                  ', 'GIGCchem',
                              'DryDep_SOAGX                  ', 'GIGCchem',
                              'DryDep_SOAME                  ', 'GIGCchem',
                              'DryDep_SOAIE                  ', 'GIGCchem',
                              'DryDep_IMAE                   ', 'GIGCchem',
                              'DryDep_RIPD                   ', 'GIGCchem',
                              'DryDep_RIPB                   ', 'GIGCchem',
                              'DryDep_RIPA                   ', 'GIGCchem',
                              'DryDep_ISN1                   ', 'GIGCchem',
                              'DryDep_IEPOXD                 ', 'GIGCchem',
                              'DryDep_IEPOXB                 ', 'GIGCchem',
                              'DryDep_IEPOXA                 ', 'GIGCchem',
                              'DryDep_HCOOH                  ', 'GIGCchem',
                              'DryDep_ETHLN                  ', 'GIGCchem',
                              'DryDep_DHDN                   ', 'GIGCchem',
                              'DryDep_HPALD                  ', 'GIGCchem',
                              'DryDep_ACTA                   ', 'GIGCchem',
                              'DryDep_GLYX                   ', 'GIGCchem',
                              'DryDep_MGLY                   ', 'GIGCchem',
                              'DryDep_EOH                    ', 'GIGCchem',
                              'DryDep_SOAS                   ', 'GIGCchem',
                              'DryDep_ASOA3                  ', 'GIGCchem',
                              'DryDep_ASOA2                  ', 'GIGCchem',
                              'DryDep_ASOA1                  ', 'GIGCchem',
                              'DryDep_ASOAN                  ', 'GIGCchem',
                              'DryDep_ASOG3                  ', 'GIGCchem',
                              'DryDep_ASOG2                  ', 'GIGCchem',
                              'DryDep_ASOG1                  ', 'GIGCchem',
                              'DryDep_ISOA3                  ', 'GIGCchem',
                              'DryDep_ISOA2                  ', 'GIGCchem',
                              'DryDep_ISOA1                  ', 'GIGCchem',
                              'DryDep_ISOG3                  ', 'GIGCchem',
                              'DryDep_ISOG2                  ', 'GIGCchem',
                              'DryDep_ISOG1                  ', 'GIGCchem',
                              'DryDep_TSOA0                  ', 'GIGCchem',
                              'DryDep_TSOA3                  ', 'GIGCchem',
                              'DryDep_TSOA2                  ', 'GIGCchem',
                              'DryDep_TSOA1                  ', 'GIGCchem',
                              'DryDep_TSOG0                  ', 'GIGCchem',
                              'DryDep_TSOG3                  ', 'GIGCchem',
                              'DryDep_TSOG2                  ', 'GIGCchem',
                              'DryDep_TSOG1                  ', 'GIGCchem',
                              'DryDep_MTPO                   ', 'GIGCchem',
                              'DryDep_LIMO                   ', 'GIGCchem',
                              'DryDep_MTPA                   ', 'GIGCchem',
                              'DryDep_NO2                    ', 'GIGCchem',
                              'DryDep_MAP                    ', 'GIGCchem',
                              'DryDep_MACRN                  ', 'GIGCchem',
                              'DryDep_MVKN                   ', 'GIGCchem',
                              'DryDep_GLYC                   ', 'GIGCchem',
                              'DryDep_HAC                    ', 'GIGCchem',
                              'DryDep_PROPNN                 ', 'GIGCchem',
                              'DryDep_ISOPNB                 ', 'GIGCchem',
                              'DryDep_ISOPND                 ', 'GIGCchem',
                              'DryDep_BRNO3                  ', 'GIGCchem',
                              'DryDep_HBR                    ', 'GIGCchem',
                              'DryDep_HOBR                   ', 'GIGCchem',
                              'DryDep_BR2                    ', 'GIGCchem',
                              'DryDep_SALC                   ', 'GIGCchem',
                              'DryDep_SALA                   ', 'GIGCchem',
                              'DryDep_DST4                   ', 'GIGCchem',
                              'DryDep_DST3                   ', 'GIGCchem',
                              'DryDep_DST2                   ', 'GIGCchem',
                              'DryDep_DST1                   ', 'GIGCchem',
                              'DryDep_OCPO                   ', 'GIGCchem',
                              'DryDep_BCPO                   ', 'GIGCchem',
                              'DryDep_OCPI                   ', 'GIGCchem',
                              'DryDep_BCPI                   ', 'GIGCchem',
                              'DryDep_NITS                   ', 'GIGCchem',
                              'DryDep_NIT                    ', 'GIGCchem',
                              'DryDep_NH4                    ', 'GIGCchem',
                              'DryDep_NH3                    ', 'GIGCchem',
                              'DryDep_MSA                    ', 'GIGCchem',
                              'DryDep_SO4S                   ', 'GIGCchem',
                              'DryDep_SO4                    ', 'GIGCchem',
                              'DryDep_SO2                    ', 'GIGCchem',
                              'DryDep_N2O5                   ', 'GIGCchem',
                              'DryDep_CH2O                   ', 'GIGCchem',
                              'DryDep_R4N2                   ', 'GIGCchem',
                              'DryDep_PPN                    ', 'GIGCchem',
                              'DryDep_NPMN                   ', 'GIGCchem',
                              'DryDep_MACR                   ', 'GIGCchem',
                              'DryDep_MVK                    ', 'GIGCchem',
                              'DryDep_ALD2                   ', 'GIGCchem',
                              'DryDep_ACET                   ', 'GIGCchem',
                              'DryDep_H2O2                   ', 'GIGCchem',
                              'DryDep_HNO3                   ', 'GIGCchem',
                              'DryDep_PAN                    ', 'GIGCchem',
                              'DryDep_O3                     ', 'GIGCchem',
::
#===================================================================
# Photolysis rates (J-values)
  JValues.template:           '%y4%m2%d2_%h2%n2z.nc4',
  JValues.format:             'CFIO',
  JValues.frequency:          010000
  JValues.duration:           010000
  JValues.mode:               'time-averaged'
  JValues.fields:             'Jval_O3O3P                    ', 'GIGCchem',
                              'Jval_O3O1D                    ', 'GIGCchem',
                              'Jval_O2                       ', 'GIGCchem',
                              'Jval_INPN                     ', 'GIGCchem',
                              'Jval_MRP                      ', 'GIGCchem',
                              'Jval_MAOP                     ', 'GIGCchem',
                              'Jval_ISNP                     ', 'GIGCchem',
                              'Jval_ATOOH                    ', 'GIGCchem',
                              'Jval_VRP                      ', 'GIGCchem',
                              'Jval_IAP                      ', 'GIGCchem',
                              'Jval_R4P                      ', 'GIGCchem',
                              'Jval_PIP                      ', 'GIGCchem',
                              'Jval_PRPN                     ', 'GIGCchem',
                              'Jval_PP                       ', 'GIGCchem',
                              'Jval_RP                       ', 'GIGCchem',
                              'Jval_RB3P                     ', 'GIGCchem',
                              'Jval_RA3P                     ', 'GIGCchem',
                              'Jval_ETP                      ', 'GIGCchem',
                              'Jval_CH2CL2                   ', 'GIGCchem',
                              'Jval_CHCL3                    ', 'GIGCchem',
                              'Jval_CL2O2                    ', 'GIGCchem',
                              'Jval_CL2                      ', 'GIGCchem',
                              'Jval_OCLO                     ', 'GIGCchem',
                              'Jval_CLOO                     ', 'GIGCchem',
                              'Jval_CLNO2                    ', 'GIGCchem',
                              'Jval_CLNO3                    ', 'GIGCchem',
                              'Jval_HOCL                     ', 'GIGCchem',
                              'Jval_CLO                      ', 'GIGCchem',
                              'Jval_H2402                    ', 'GIGCchem',
                              'Jval_H1301                    ', 'GIGCchem',
                              'Jval_H1211                    ', 'GIGCchem',
                              'Jval_HCFC22                   ', 'GIGCchem',
                              'Jval_CFC12                    ', 'GIGCchem',
                              'Jval_CFC11                    ', 'GIGCchem',
                              'Jval_HCFC142B                 ', 'GIGCchem',
                              'Jval_HCFC141B                 ', 'GIGCchem',
                              'Jval_HCFC123                  ', 'GIGCchem',
                              'Jval_CFC115                   ', 'GIGCchem',
                              'Jval_CFC114                   ', 'GIGCchem',
                              'Jval_CFC113                   ', 'GIGCchem',
                              'Jval_CH3CCL3                  ', 'GIGCchem',
                              'Jval_CH3CL                    ', 'GIGCchem',
                              'Jval_CCL4                     ', 'GIGCchem',
                              'Jval_BRCL                     ', 'GIGCchem',
                              'Jval_OCS                      ', 'GIGCchem',
                              'Jval_N2O                      ', 'GIGCchem',
                              'Jval_IPMN                     ', 'GIGCchem',
                              'Jval_HONIT                    ', 'GIGCchem',
                              'Jval_MONITU                   ', 'GIGCchem',
                              'Jval_MONITS                   ', 'GIGCchem',
                              'Jval_RIPD                     ', 'GIGCchem',
                              'Jval_RIPB                     ', 'GIGCchem',
                              'Jval_RIPA                     ', 'GIGCchem',
                              'Jval_ISN1                     ', 'GIGCchem',
                              'Jval_ETHLN                    ', 'GIGCchem',
                              'Jval_DHDN                     ', 'GIGCchem',
                              'Jval_HPALD                    ', 'GIGCchem',
                              'Jval_GLYX                     ', 'GIGCchem',
                              'Jval_MGLY                     ', 'GIGCchem',
                              'Jval_HNO2                     ', 'GIGCchem',
                              'Jval_NO3                      ', 'GIGCchem',
                              'Jval_NO2                      ', 'GIGCchem',
                              'Jval_MAP                      ', 'GIGCchem',
                              'Jval_MACRN                    ', 'GIGCchem',
                              'Jval_MVKN                     ', 'GIGCchem',
                              'Jval_GLYC                     ', 'GIGCchem',
                              'Jval_HAC                      ', 'GIGCchem',
                              'Jval_PROPNN                   ', 'GIGCchem',
                              'Jval_ISOPNB                   ', 'GIGCchem',
                              'Jval_ISOPND                   ', 'GIGCchem',
                              'Jval_MPN                      ', 'GIGCchem',
                              'Jval_CH3BR                    ', 'GIGCchem',
                              'Jval_CH2BR2                   ', 'GIGCchem',
                              'Jval_CHBR3                    ', 'GIGCchem',
                              'Jval_BRNO3                    ', 'GIGCchem',
                              'Jval_BRNO2                    ', 'GIGCchem',
                              'Jval_HOBR                     ', 'GIGCchem',
                              'Jval_BRO                      ', 'GIGCchem',
                              'Jval_BR2                      ', 'GIGCchem',
                              'Jval_SO4                      ', 'GIGCchem',
                              'Jval_MP                       ', 'GIGCchem',
                              'Jval_HNO4                     ', 'GIGCchem',
                              'Jval_N2O5                     ', 'GIGCchem',
                              'Jval_CH2O                     ', 'GIGCchem',
                              'Jval_R4N2                     ', 'GIGCchem',
                              'Jval_MACR                     ', 'GIGCchem',
                              'Jval_MVK                      ', 'GIGCchem',
                              'Jval_RCHO                     ', 'GIGCchem',
                              'Jval_ALD2                     ', 'GIGCchem',
                              'Jval_MEK                      ', 'GIGCchem',
                              'Jval_ACET                     ', 'GIGCchem',
                              'Jval_H2O2                     ', 'GIGCchem',
                              'Jval_HNO3                     ', 'GIGCchem',
                              'Jval_PAN                      ', 'GIGCchem',
                              'Jval_O3                       ', 'GIGCchem',
                              'Jval_NO                       ', 'GIGCchem',
::
#===================================================================
# Photolysis rates at local noon (J-values)
  JValuesLocalNoon.template:  '%y4%m2%d2_%h2%n2z.nc4',
  JValuesLocalNoon.format:    'CFIO',
  JValuesLocalNoon.frequency: 010000
  JValuesLocalNoon.duration:  010000
  JValuesLocalNoon.mode:      'instantaneous'
  JValuesLocalNoon.fields:    'JNoon_O3O3P                   ', 'GIGCchem',
                              'JNoon_O3O1D                   ', 'GIGCchem',
                              'JNoon_O2                      ', 'GIGCchem',
                              'JNoon_INPN                    ', 'GIGCchem',
                              'JNoon_MRP                     ', 'GIGCchem',
                              'JNoon_MAOP                    ', 'GIGCchem',
                              'JNoon_ISNP                    ', 'GIGCchem',
                              'JNoon_ATOOH                   ', 'GIGCchem',
                              'JNoon_VRP                     ', 'GIGCchem',
                              'JNoon_IAP                     ', 'GIGCchem',
                              'JNoon_R4P                     ', 'GIGCchem',
                              'JNoon_PIP                     ', 'GIGCchem',
                              'JNoon_PRPN                    ', 'GIGCchem',
                              'JNoon_PP                      ', 'GIGCchem',
                              'JNoon_RP                      ', 'GIGCchem',
                              'JNoon_RB3P                    ', 'GIGCchem',
                              'JNoon_RA3P                    ', 'GIGCchem',
                              'JNoon_ETP                     ', 'GIGCchem',
                              'JNoon_CH2CL2                  ', 'GIGCchem',
                              'JNoon_CHCL3                   ', 'GIGCchem',
                              'JNoon_CL2O2                   ', 'GIGCchem',
                              'JNoon_CL2                     ', 'GIGCchem',
                              'JNoon_OCLO                    ', 'GIGCchem',
                              'JNoon_CLOO                    ', 'GIGCchem',
                              'JNoon_CLNO2                   ', 'GIGCchem',
                              'JNoon_CLNO3                   ', 'GIGCchem',
                              'JNoon_HOCL                    ', 'GIGCchem',
                              'JNoon_CLO                     ', 'GIGCchem',
                              'JNoon_H2402                   ', 'GIGCchem',
                              'JNoon_H1301                   ', 'GIGCchem',
                              'JNoon_H1211                   ', 'GIGCchem',
                              'JNoon_HCFC22                  ', 'GIGCchem',
                              'JNoon_CFC12                   ', 'GIGCchem',
                              'JNoon_CFC11                   ', 'GIGCchem',
                              'JNoon_HCFC142B                ', 'GIGCchem',
                              'JNoon_HCFC141B                ', 'GIGCchem',
                              'JNoon_HCFC123                 ', 'GIGCchem',
                              'JNoon_CFC115                  ', 'GIGCchem',
                              'JNoon_CFC114                  ', 'GIGCchem',
                              'JNoon_CFC113                  ', 'GIGCchem',
                              'JNoon_CH3CCL3                 ', 'GIGCchem',
                              'JNoon_CH3CL                   ', 'GIGCchem',
                              'JNoon_CCL4                    ', 'GIGCchem',
                              'JNoon_BRCL                    ', 'GIGCchem',
                              'JNoon_OCS                     ', 'GIGCchem',
                              'JNoon_N2O                     ', 'GIGCchem',
                              'JNoon_IPMN                    ', 'GIGCchem',
                              'JNoon_HONIT                   ', 'GIGCchem',
                              'JNoon_MONITU                  ', 'GIGCchem',
                              'JNoon_MONITS                  ', 'GIGCchem',
                              'JNoon_RIPD                    ', 'GIGCchem',
                              'JNoon_RIPB                    ', 'GIGCchem',
                              'JNoon_RIPA                    ', 'GIGCchem',
                              'JNoon_ISN1                    ', 'GIGCchem',
                              'JNoon_ETHLN                   ', 'GIGCchem',
                              'JNoon_DHDN                     ', 'GIGCchem',
                              'JNoon_HPALD                   ', 'GIGCchem',
                              'JNoon_GLYX                    ', 'GIGCchem',
                              'JNoon_MGLY                    ', 'GIGCchem',
                              'JNoon_HNO2                    ', 'GIGCchem',
                              'JNoon_NO3                     ', 'GIGCchem',
                              'JNoon_NO2                     ', 'GIGCchem',
                              'JNoon_MAP                     ', 'GIGCchem',
                              'JNoon_MACRN                   ', 'GIGCchem',
                              'JNoon_MVKN                    ', 'GIGCchem',
                              'JNoon_GLYC                    ', 'GIGCchem',
                              'JNoon_HAC                     ', 'GIGCchem',
                              'JNoon_PROPNN                  ', 'GIGCchem',
                              'JNoon_ISOPNB                  ', 'GIGCchem',
                              'JNoon_ISOPND                  ', 'GIGCchem',
                              'JNoon_MPN                     ', 'GIGCchem',
                              'JNoon_CH3BR                   ', 'GIGCchem',
                              'JNoon_CH2BR2                  ', 'GIGCchem',
                              'JNoon_CHBR3                   ', 'GIGCchem',
                              'JNoon_BRNO3                   ', 'GIGCchem',
                              'JNoon_BRNO2                   ', 'GIGCchem',
                              'JNoon_HOBR                    ', 'GIGCchem',
                              'JNoon_BRO                     ', 'GIGCchem',
                              'JNoon_BR2                     ', 'GIGCchem',
                              'JNoon_SO4                     ', 'GIGCchem',
                              'JNoon_MP                      ', 'GIGCchem',
                              'JNoon_HNO4                    ', 'GIGCchem',
                              'JNoon_N2O5                    ', 'GIGCchem',
                              'JNoon_CH2O                    ', 'GIGCchem',
                              'JNoon_R4N2                    ', 'GIGCchem',
                              'JNoon_MACR                    ', 'GIGCchem',
                              'JNoon_MVK                     ', 'GIGCchem',
                              'JNoon_RCHO                    ', 'GIGCchem',
                              'JNoon_ALD2                    ', 'GIGCchem',
                              'JNoon_MEK                     ', 'GIGCchem',
                              'JNoon_ACET                    ', 'GIGCchem',
                              'JNoon_H2O2                    ', 'GIGCchem',
                              'JNoon_HNO3                    ', 'GIGCchem',
                              'JNoon_PAN                     ', 'GIGCchem',
                              'JNoon_O3                      ', 'GIGCchem',
                              'JNoon_NO                      ', 'GIGCchem',
::
#===================================================================
# Level edge diagnostics (73-level only)
  LevelEdgeDiags.template:    '%y4%m2%d2_%h2%n2z.nc4',
  LevelEdgeDiags.format:      'CFIO',
  LevelEdgeDiags.frequency:   010000
  LevelEdgeDiags.duration:    010000
  LevelEdgeDiags.mode:        'time-averaged'
  LevelEdgeDiags.fields:      'Met_CMFMC                     ', 'GIGCchem',
                              'Met_PEDGE                      ', 'GIGCchem',
                              'Met_PEDGEDRY                   ', 'GIGCchem',
                              'Met_PFICU                      ', 'GIGCchem',
                              'Met_PFILSAN                    ', 'GIGCchem',
                              'Met_PFLCU                      ', 'GIGCchem',
                              'Met_PFLLSAN                    ', 'GIGCchem',
::
#===================================================================
# Prod/loss rates
  ProdLoss.template:          '%y4%m2%d2_%h2%n2z.nc4',
  ProdLoss.format:            'CFIO',
  ProdLoss.frequency:         010000
  ProdLoss.duration:          010000
  ProdLoss.mode:              'time-averaged'
  ProdLoss.fields:            'PROD_SO4                      ', 'GIGCchem', 
                              'PROD_CO                       ', 'GIGCchem', 
                              'PROD_OX                       ', 'GIGCchem', 
                              'ProdBCPIfromBCPO              ', 'GIGCchem', 
                              'ProdOCPIfromOCPO              ', 'GIGCchem',
                              'ProdSO4fromH2O2inCloud        ', 'GIGCchem',
                              'ProdSO4fromO2inCloudMetal     ', 'GIGCchem',
                              'ProdSO4fromO3inCloud          ', 'GIGCchem',
                              'ProdSO4fromO3inSeaSalt        ', 'GIGCchem',
                              'ProdSO4fromHOBrInCloud        ', 'GIGCchem',
                              'ProdSO4fromSRO3               ', 'GIGCchem',
                              'ProdSO4fromSRHObr             ', 'GIGCchem',
                              'ProdSO4fromO3s                ', 'GIGCchem',
                              'LOSS_CO                       ', 'GIGCchem',
                              'LOSS_OX                       ', 'GIGCchem',
                              'LossHNO3onSeaSalt             ', 'GIGCchem',
::
#===================================================================
# State_Chm array diagnostics (see also Aerosols collection)
  StateChm.template:          '%y4%m2%d2_%h2%n2z.nc4',
  StateChm.format:            'CFIO',
  StateChm.frequency:         010000
  StateChm.duration:          010000
  StateChm.mode:              'time-averaged'
  StateChm.fields:            'Chem_phSav                    ', 'GIGCchem',
                              'Chem_HplusSav                 ', 'GIGCchem',
                              'Chem_WaterSav                 ', 'GIGCchem',
                              'Chem_SulRatSav                ', 'GIGCchem',
                              'Chem_NaRatSav                 ', 'GIGCchem',
                              'Chem_AcidPurSav               ', 'GIGCchem',
                              'Chem_BiSulSav                 ', 'GIGCchem',
                              'Chem_pHCloud                  ', 'GIGCchem',
                              'Chem_SSAlk                    ', 'GIGCchem',
                              'Chem_HSO3AQ                   ', 'GIGCchem',
                              'Chem_SO3AQ                    ', 'GIGCchem',
                              'Chem_fupdateHOBr              ', 'GIGCchem',
::
#===================================================================
# State_Met array diagnostics
  StateMet.template:          '%y4%m2%d2_%h2%n2z.nc4',
  StateMet.format:            'CFIO',
  StateMet.frequency:         010000
  StateMet.duration:          010000
  StateMet.mode:              'time-averaged'
  StateMet.fields:            'Met_AD                         ', 'GIGCchem',
                              'Met_AIRDEN                     ', 'GIGCchem',
                              'Met_AIRVOL                     ', 'GIGCchem',
                              'Met_ALBD                       ', 'GIGCchem',
                              'Met_AREAM2                     ', 'GIGCchem',
                              'Met_AVGW                       ', 'GIGCchem',
                              'Met_BXHEIGHT                   ', 'GIGCchem',
                              'Met_ChemGridLev                ', 'GIGCchem',
                              'Met_CLDF                       ', 'GIGCchem',
                              'Met_CLDFRC                     ', 'GIGCchem',
                              'Met_CLDTOPS                    ', 'GIGCchem',
                              'Met_CNVFRC                     ', 'GIGCchem',
                              'Met_DELP                       ', 'GIGCchem',
                              'Met_DQRCU                      ', 'GIGCchem',
                              'Met_DQRLSAN                    ', 'GIGCchem',
                              'Met_DTRAIN                     ', 'GIGCchem',
                              'Met_EFLUX                      ', 'GIGCchem',
                              'Met_FRCLND                     ', 'GIGCchem',
                              'Met_FRLAKE                     ', 'GIGCchem',
                              'Met_FRLAND                     ', 'GIGCchem',
                              'Met_FRLANDIC                   ', 'GIGCchem',
                              'Met_FROCEAN                    ', 'GIGCchem',
                              'Met_FRSEAICE                   ', 'GIGCchem',
                              'Met_FRSNO                      ', 'GIGCchem',
                              'Met_GWETROOT                   ', 'GIGCchem',
                              'Met_GWETTOP                    ', 'GIGCchem',
                              'Met_HFLUX                      ', 'GIGCchem',
                              'Met_LAI                        ', 'GIGCchem',
                              'Met_LWI                        ', 'GIGCchem',
                              'Met_PARDR                      ', 'GIGCchem',
                              'Met_PARDF                      ', 'GIGCchem',
                              'Met_PBLTOPL                    ', 'GIGCchem',
                              'Met_PBLH                       ', 'GIGCchem',
                              'Met_PHIS                       ', 'GIGCchem',
                              'Met_PMID                       ', 'GIGCchem',
                              'Met_PMIDDRY                    ', 'GIGCchem',
                              'Met_PRECANV                    ', 'GIGCchem',
                              'Met_PRECCON                    ', 'GIGCchem',
                              'Met_PRECLSC                    ', 'GIGCchem',
                              'Met_PRECTOT                    ', 'GIGCchem',
                              'Met_PS1DRY                     ', 'GIGCchem',
                              'Met_PS1WET                     ', 'GIGCchem',
                              'Met_PS2DRY                     ', 'GIGCchem',
                              'Met_PS2WET                     ', 'GIGCchem',
                              'Met_PSC2WET                    ', 'GIGCchem',
                              'Met_PSC2DRY                    ', 'GIGCchem',
                              'Met_QI                         ', 'GIGCchem',
                              'Met_QL                         ', 'GIGCchem',
                              'Met_OMEGA                      ', 'GIGCchem',
                              'Met_OPTD                       ', 'GIGCchem',
                              'Met_REEVAPCN                   ', 'GIGCchem',
                              'Met_REEVAPLS                   ', 'GIGCchem',
                              'Met_SLP                        ', 'GIGCchem',
                              'Met_SNODP                      ', 'GIGCchem',
                              'Met_SNOMAS                     ', 'GIGCchem',
                              'Met_SPHU                       ', 'GIGCchem',
                              'Met_SPHU1                      ', 'GIGCchem',
                              'Met_SPHU2                      ', 'GIGCchem',
                              'Met_SUNCOS                     ', 'GIGCchem',
                              'Met_SUNCOSmid                  ', 'GIGCchem',
                              'Met_SWGDN                      ', 'GIGCchem',
                              'Met_T                          ', 'GIGCchem',
                              'Met_TAUCLI                     ', 'GIGCchem',
                              'Met_TAUCLW                     ', 'GIGCchem',
                              'Met_THETA                      ', 'GIGCchem',
                              'Met_TMPU1                      ', 'GIGCchem',
                              'Met_TMPU2                      ', 'GIGCchem',
                              'Met_TO3                        ', 'GIGCchem',
                              'Met_TropHt                     ', 'GIGCchem',
                              'Met_TropLev                    ', 'GIGCchem',
                              'Met_TropP                      ', 'GIGCchem',
                              'Met_TS                         ', 'GIGCchem',
                              'Met_TSKIN                      ', 'GIGCchem',
                              'Met_TV                         ', 'GIGCchem',
                              'Met_U                          ', 'GIGCchem',
                              'Met_U10M                       ', 'GIGCchem',
                              'Met_UPDVVEL                    ', 'GIGCchem',
                              'Met_USTAR                      ', 'GIGCchem',
                              'Met_UVALBEDO                   ', 'GIGCchem',
                              'Met_V                          ', 'GIGCchem',
                              'Met_V10M                       ', 'GIGCchem',
                              'Met_Z0                         ', 'GIGCchem',
::
#===================================================================
# Loss due to convection (per wet deposited species)
  WetLossConv.template:       '%y4%m2%d2_%h2%n2z.nc4',
  WetLossConv.format:         'CFIO',
  WetLossConv.frequency:      010000
  WetLossConv.duration:       010000
  WetLossConv.mode:           'time-averaged'
  WetLossConv.fields:         'WetLossConv_AERI              ', 'GIGCchem',
                              'WetLossConv_ISALC             ', 'GIGCchem',
                              'WetLossConv_ISALA             ', 'GIGCchem',
                              'WetLossConv_I2O4              ', 'GIGCchem',
                              'WetLossConv_I2O3              ', 'GIGCchem',
                              'WetLossConv_I2O2              ', 'GIGCchem',
                              'WetLossConv_IONO2             ', 'GIGCchem',
                              'WetLossConv_IONO              ', 'GIGCchem',
                              'WetLossConv_HI                ', 'GIGCchem',
                              'WetLossConv_ICL               ', 'GIGCchem',
                              'WetLossConv_IBR               ', 'GIGCchem',
                              'WetLossConv_I2                ', 'GIGCchem',
                              'WetLossConv_HOI               ', 'GIGCchem',
                              'WetLossConv_BRSALC            ', 'GIGCchem',
                              'WetLossConv_BRSALA            ', 'GIGCchem',
                              'WetLossConv_HOCL              ', 'GIGCchem',
                              'WetLossConv_HCL               ', 'GIGCchem',
                              'WetLossConv_INDIOL            ', 'GIGCchem',
                              'WetLossConv_MONITA            ', 'GIGCchem',
                              'WetLossConv_IONITA            ', 'GIGCchem',
                              'WetLossConv_HONIT             ', 'GIGCchem',
                              'WetLossConv_MONITU            ', 'GIGCchem',
                              'WetLossConv_MONITS            ', 'GIGCchem',
                              'WetLossConv_ISN1OA            ', 'GIGCchem',
                              'WetLossConv_ISN1OG            ', 'GIGCchem',
                              'WetLossConv_LVOCOA            ', 'GIGCchem',
                              'WetLossConv_LVOC              ', 'GIGCchem',
                              'WetLossConv_SOAMG             ', 'GIGCchem',
                              'WetLossConv_SOAGX             ', 'GIGCchem',
                              'WetLossConv_SOAME             ', 'GIGCchem',
                              'WetLossConv_SOAIE             ', 'GIGCchem',
                              'WetLossConv_IMAE              ', 'GIGCchem',
                              'WetLossConv_RIPD              ', 'GIGCchem',
                              'WetLossConv_RIPB              ', 'GIGCchem',
                              'WetLossConv_RIPA              ', 'GIGCchem',
                              'WetLossConv_ISN1              ', 'GIGCchem',
                              'WetLossConv_IEPOXD            ', 'GIGCchem',
                              'WetLossConv_IEPOXB            ', 'GIGCchem',
                              'WetLossConv_IEPOXA            ', 'GIGCchem',
                              'WetLossConv_HCOOH             ', 'GIGCchem',
                              'WetLossConv_ETHLN             ', 'GIGCchem',
                              'WetLossConv_DHDN              ', 'GIGCchem',
                              'WetLossConv_ACTA              ', 'GIGCchem',
                              'WetLossConv_GLYX              ', 'GIGCchem',
                              'WetLossConv_MGLY              ', 'GIGCchem',
                              'WetLossConv_EOH               ', 'GIGCchem',
                              'WetLossConv_SOAS              ', 'GIGCchem',
                              'WetLossConv_ASOA3             ', 'GIGCchem',
                              'WetLossConv_ASOA2             ', 'GIGCchem',
                              'WetLossConv_ASOA1             ', 'GIGCchem',
                              'WetLossConv_ASOAN             ', 'GIGCchem',
                              'WetLossConv_ASOG3             ', 'GIGCchem',
                              'WetLossConv_ASOG2             ', 'GIGCchem',
                              'WetLossConv_ASOG1             ', 'GIGCchem',
                              'WetLossConv_ISOA3             ', 'GIGCchem',
                              'WetLossConv_ISOA2             ', 'GIGCchem',
                              'WetLossConv_ISOA1             ', 'GIGCchem',
                              'WetLossConv_ISOG3             ', 'GIGCchem',
                              'WetLossConv_ISOG2             ', 'GIGCchem',
                              'WetLossConv_ISOG1             ', 'GIGCchem',
                              'WetLossConv_TSOA0             ', 'GIGCchem',
                              'WetLossConv_TSOA3             ', 'GIGCchem',
                              'WetLossConv_TSOA2             ', 'GIGCchem',
                              'WetLossConv_TSOA1             ', 'GIGCchem',
                              'WetLossConv_TSOG0             ', 'GIGCchem',
                              'WetLossConv_TSOG3             ', 'GIGCchem',
                              'WetLossConv_TSOG2             ', 'GIGCchem',
                              'WetLossConv_TSOG1             ', 'GIGCchem',
                              'WetLossConv_MTPO              ', 'GIGCchem',
                              'WetLossConv_LIMO              ', 'GIGCchem',
                              'WetLossConv_MTPA              ', 'GIGCchem',
                              'WetLossConv_MAP               ', 'GIGCchem',
                              'WetLossConv_MACRN             ', 'GIGCchem',
                              'WetLossConv_MVKN              ', 'GIGCchem',
                              'WetLossConv_GLYC              ', 'GIGCchem',
                              'WetLossConv_HAC               ', 'GIGCchem',
                              'WetLossConv_PROPNN            ', 'GIGCchem',
                              'WetLossConv_MOBA              ', 'GIGCchem',
                              'WetLossConv_ISOPNB            ', 'GIGCchem',
                              'WetLossConv_ISOPND            ', 'GIGCchem',
                              'WetLossConv_HBR               ', 'GIGCchem',
                              'WetLossConv_HOBR              ', 'GIGCchem',
                              'WetLossConv_BR2               ', 'GIGCchem',
                              'WetLossConv_SALC              ', 'GIGCchem',   
                              'WetLossConv_SALA              ', 'GIGCchem',   
                              'WetLossConv_DST4              ', 'GIGCchem',   
                              'WetLossConv_DST3              ', 'GIGCchem',   
                              'WetLossConv_DST2              ', 'GIGCchem',   
                              'WetLossConv_DST1              ', 'GIGCchem',   
                              'WetLossConv_OCPO              ', 'GIGCchem',   
                              'WetLossConv_BCPO              ', 'GIGCchem',   
                              'WetLossConv_OCPI              ', 'GIGCchem',   
                              'WetLossConv_BCPI              ', 'GIGCchem',   
                              'WetLossConv_NITS              ', 'GIGCchem',   
                              'WetLossConv_NIT               ', 'GIGCchem',   
                              'WetLossConv_NH4               ', 'GIGCchem',   
                              'WetLossConv_NH3               ', 'GIGCchem',   
                              'WetLossConv_MSA               ', 'GIGCchem',   
                              'WetLossConv_SO4S              ', 'GIGCchem',   
                              'WetLossConv_SO4               ', 'GIGCchem',   
                              'WetLossConv_SO2               ', 'GIGCchem',   
                              'WetLossConv_MP                ', 'GIGCchem',   
                              'WetLossConv_CH2O              ', 'GIGCchem',   
                              'WetLossConv_ALD2              ', 'GIGCchem',   
                              'WetLossConv_H2O2              ', 'GIGCchem',   
                              'WetLossConv_HNO3              ', 'GIGCchem',   
::
#===================================================================
# Loss due to rainout and washout (per deposited species)
  WetLossLS.template:         '%y4%m2%d2_%h2%n2z.nc4',
  WetLossLS.format:           'CFIO',
  WetLossLS.frequency:        010000
  WetLossLS.duration:         010000
  WetLossLS.mode:             'time-averaged'
  WetLossLS.fields:           'WetLossLS_AERI               ', 'GIGCchem',
                              'WetLossLS_ISALC              ', 'GIGCchem',
                              'WetLossLS_ISALA              ', 'GIGCchem',
                              'WetLossLS_I2O4               ', 'GIGCchem',
                              'WetLossLS_I2O3               ', 'GIGCchem',
                              'WetLossLS_I2O2               ', 'GIGCchem',
                              'WetLossLS_IONO2              ', 'GIGCchem',
                              'WetLossLS_IONO               ', 'GIGCchem',
                              'WetLossLS_HI                 ', 'GIGCchem',
                              'WetLossLS_ICL                ', 'GIGCchem',
                              'WetLossLS_IBR                ', 'GIGCchem',
                              'WetLossLS_I2                 ', 'GIGCchem',
                              'WetLossLS_HOI                ', 'GIGCchem',
                              'WetLossLS_BRSALC             ', 'GIGCchem',
                              'WetLossLS_BRSALA             ', 'GIGCchem',
                              'WetLossLS_HOCL               ', 'GIGCchem',
                              'WetLossLS_HCL                ', 'GIGCchem',
                              'WetLossLS_INDIOL             ', 'GIGCchem',
                              'WetLossLS_MONITA             ', 'GIGCchem',
                              'WetLossLS_IONITA             ', 'GIGCchem',
                              'WetLossLS_HONIT              ', 'GIGCchem',
                              'WetLossLS_MONITU             ', 'GIGCchem',
                              'WetLossLS_MONITS             ', 'GIGCchem',
                              'WetLossLS_ISN1OA             ', 'GIGCchem',
                              'WetLossLS_ISN1OG             ', 'GIGCchem',
                              'WetLossLS_LVOCOA             ', 'GIGCchem',
                              'WetLossLS_LVOC               ', 'GIGCchem',
                              'WetLossLS_SOAMG              ', 'GIGCchem',
                              'WetLossLS_SOAGX              ', 'GIGCchem',
                              'WetLossLS_SOAME              ', 'GIGCchem',
                              'WetLossLS_SOAIE              ', 'GIGCchem',
                              'WetLossLS_IMAE               ', 'GIGCchem',
                              'WetLossLS_RIPD               ', 'GIGCchem',
                              'WetLossLS_RIPB               ', 'GIGCchem',
                              'WetLossLS_RIPA               ', 'GIGCchem',
                              'WetLossLS_ISN1               ', 'GIGCchem',
                              'WetLossLS_IEPOXD             ', 'GIGCchem',
                              'WetLossLS_IEPOXB             ', 'GIGCchem',
                              'WetLossLS_IEPOXA             ', 'GIGCchem',
                              'WetLossLS_HCOOH              ', 'GIGCchem',
                              'WetLossLS_ETHLN              ', 'GIGCchem',
                              'WetLossLS_DHDN               ', 'GIGCchem',
                              'WetLossLS_ACTA               ', 'GIGCchem',
                              'WetLossLS_GLYX               ', 'GIGCchem',
                              'WetLossLS_MGLY               ', 'GIGCchem',
                              'WetLossLS_EOH                ', 'GIGCchem',
                              'WetLossLS_SOAS               ', 'GIGCchem',
                              'WetLossLS_ASOA3              ', 'GIGCchem',
                              'WetLossLS_ASOA2              ', 'GIGCchem',
                              'WetLossLS_ASOA1              ', 'GIGCchem',
                              'WetLossLS_ASOAN              ', 'GIGCchem',
                              'WetLossLS_ASOG3              ', 'GIGCchem',
                              'WetLossLS_ASOG2              ', 'GIGCchem',
                              'WetLossLS_ASOG1              ', 'GIGCchem',
                              'WetLossLS_ISOA3              ', 'GIGCchem',
                              'WetLossLS_ISOA2              ', 'GIGCchem',
                              'WetLossLS_ISOA1              ', 'GIGCchem',
                              'WetLossLS_ISOG3              ', 'GIGCchem',
                              'WetLossLS_ISOG2              ', 'GIGCchem',
                              'WetLossLS_ISOG1              ', 'GIGCchem',
                              'WetLossLS_TSOA0              ', 'GIGCchem',
                              'WetLossLS_TSOA3              ', 'GIGCchem',
                              'WetLossLS_TSOA2              ', 'GIGCchem',
                              'WetLossLS_TSOA1              ', 'GIGCchem',
                              'WetLossLS_TSOG0              ', 'GIGCchem',
                              'WetLossLS_TSOG3              ', 'GIGCchem',
                              'WetLossLS_TSOG2              ', 'GIGCchem',
                              'WetLossLS_TSOG1              ', 'GIGCchem',
                              'WetLossLS_MTPO               ', 'GIGCchem',
                              'WetLossLS_LIMO               ', 'GIGCchem',
                              'WetLossLS_MTPA               ', 'GIGCchem',
                              'WetLossLS_MAP                ', 'GIGCchem',
                              'WetLossLS_MACRN              ', 'GIGCchem',
                              'WetLossLS_MVKN               ', 'GIGCchem',
                              'WetLossLS_GLYC               ', 'GIGCchem',
                              'WetLossLS_HAC                ', 'GIGCchem',
                              'WetLossLS_PROPNN             ', 'GIGCchem',
                              'WetLossLS_MOBA               ', 'GIGCchem',
                              'WetLossLS_ISOPNB             ', 'GIGCchem',
                              'WetLossLS_ISOPND             ', 'GIGCchem',
                              'WetLossLS_HBR                ', 'GIGCchem',
                              'WetLossLS_HOBR               ', 'GIGCchem',
                              'WetLossLS_BR2                ', 'GIGCchem',
                              'WetLossLS_SALC               ', 'GIGCchem',   
                              'WetLossLS_SALA               ', 'GIGCchem',   
                              'WetLossLS_DST4               ', 'GIGCchem',   
                              'WetLossLS_DST3               ', 'GIGCchem',   
                              'WetLossLS_DST2               ', 'GIGCchem',   
                              'WetLossLS_DST1               ', 'GIGCchem',   
                              'WetLossLS_OCPO               ', 'GIGCchem',   
                              'WetLossLS_BCPO               ', 'GIGCchem',   
                              'WetLossLS_OCPI               ', 'GIGCchem',   
                              'WetLossLS_BCPI               ', 'GIGCchem',   
                              'WetLossLS_NITS               ', 'GIGCchem',   
                              'WetLossLS_NIT                ', 'GIGCchem',   
                              'WetLossLS_NH4                ', 'GIGCchem',   
                              'WetLossLS_NH3                ', 'GIGCchem',   
                              'WetLossLS_MSA                ', 'GIGCchem',   
                              'WetLossLS_SO4S               ', 'GIGCchem',   
                              'WetLossLS_SO4                ', 'GIGCchem',   
                              'WetLossLS_SO2                ', 'GIGCchem',   
                              'WetLossLS_MP                 ', 'GIGCchem',   
                              'WetLossLS_CH2O               ', 'GIGCchem',   
                              'WetLossLS_ALD2               ', 'GIGCchem',   
                              'WetLossLS_H2O2               ', 'GIGCchem',   
                              'WetLossLS_HNO3               ', 'GIGCchem',   
::      
