
EXPID:  OutputDir/GCHP
EXPDSC: GEOS-Chem_devel
CoresPerNode: 6


COLLECTIONS: 'center',
             ::
  center.template:  '%y4%m2%d2.nc4',
  center.format:    'CFIO',
  center.frequency:  010000
  center.duration:   010000
  center.mode:      'time-averaged'
  center.fields:    'SPC_NO      ',    'GIGCchem',
                    'SPC_O3      ',    'GIGCchem',
                    'SPC_PAN     ',    'GIGCchem',
                    'SPC_CO      ',    'GIGCchem',
                    'SPC_ALK4    ',    'GIGCchem',
                    'SPC_ISOP    ',    'GIGCchem',
                    'SPC_HNO3    ',    'GIGCchem',
                    'SPC_H2O2    ',    'GIGCchem',
                    'SPC_ACET    ',    'GIGCchem',
                    'SPC_MEK     ',    'GIGCchem',
                    'SPC_ALD2    ',    'GIGCchem',
                    'SPC_RCHO    ',    'GIGCchem',
                    'SPC_MVK     ',    'GIGCchem',
                    'SPC_MACR    ',    'GIGCchem',
                    'SPC_NPMN    ',    'GIGCchem',
                    'SPC_PPN     ',    'GIGCchem',
                    'SPC_R4N2    ',    'GIGCchem',
                    'SPC_PRPE    ',    'GIGCchem',
                    'SPC_C3H8    ',    'GIGCchem',
                    'SPC_CH2O    ',    'GIGCchem',
                    'SPC_C2H6    ',    'GIGCchem',
                    'SPC_N2O5    ',    'GIGCchem',
                    'SPC_HNO4    ',    'GIGCchem',
                    'SPC_MP      ',    'GIGCchem',
                    'SPC_DMS     ',    'GIGCchem',
                    'SPC_SO2     ',    'GIGCchem',
                    'SPC_SO4     ',    'GIGCchem',
                    'SPC_SO4s    ',    'GIGCchem',
                    'SPC_MSA     ',    'GIGCchem',
                    'SPC_NH3     ',    'GIGCchem',
                    'SPC_NH4     ',    'GIGCchem',
                    'SPC_NIT     ',    'GIGCchem',
                    'SPC_NITs    ',    'GIGCchem',
                    'SPC_BCPI    ',    'GIGCchem',
                    'SPC_OCPI    ',    'GIGCchem',
                    'SPC_BCPO    ',    'GIGCchem',
                    'SPC_OCPO    ',    'GIGCchem',
                    'SPC_DST1    ',    'GIGCchem',
                    'SPC_DST2    ',    'GIGCchem',
                    'SPC_DST3    ',    'GIGCchem',
                    'SPC_DST4    ',    'GIGCchem',
                    'SPC_SALA    ',    'GIGCchem',
                    'SPC_SALC    ',    'GIGCchem',
                    'SPC_Br2     ',    'GIGCchem',
                    'SPC_Br      ',    'GIGCchem',
                    'SPC_BrO     ',    'GIGCchem',
                    'SPC_HOBr    ',    'GIGCchem',
                    'SPC_HBr     ',    'GIGCchem',
                    'SPC_BrNO2   ',    'GIGCchem',
                    'SPC_BrNO3   ',    'GIGCchem',
                    'SPC_CHBr3   ',    'GIGCchem',
                    'SPC_CH2Br2  ',    'GIGCchem',
                    'SPC_CH3Br   ',    'GIGCchem',
                    'SPC_MPN     ',    'GIGCchem',
                    'SPC_ISOPND  ',    'GIGCchem',
                    'SPC_ISOPNB  ',    'GIGCchem',
                    'SPC_MOBA    ',    'GIGCchem',
                    'SPC_PROPNN  ',    'GIGCchem',
                    'SPC_HAC     ',    'GIGCchem',
                    'SPC_GLYC    ',    'GIGCchem',
                    'SPC_MVKN    ',    'GIGCchem',
                    'SPC_MACRN   ',    'GIGCchem',
                    'SPC_MAP     ',    'GIGCchem',
                    'SPC_NO2     ',    'GIGCchem',
                    'SPC_NO3     ',    'GIGCchem',
                    'SPC_HNO2    ',    'GIGCchem',
                    'SPC_BENZ    ',    'GIGCchem',
                    'SPC_TOLU    ',    'GIGCchem',
                    'SPC_XYLE    ',    'GIGCchem',
                    'SPC_MTPA    ',    'GIGCchem',
                    'SPC_LIMO    ',    'GIGCchem',
                    'SPC_MTPO    ',    'GIGCchem',
                    'SPC_TSOG1   ',    'GIGCchem',
                    'SPC_TSOG2   ',    'GIGCchem',
                    'SPC_TSOG3   ',    'GIGCchem',
                    'SPC_TSOG0   ',    'GIGCchem',
                    'SPC_TSOA1   ',    'GIGCchem',
                    'SPC_TSOA2   ',    'GIGCchem',
                    'SPC_TSOA3   ',    'GIGCchem',
                    'SPC_TSOA0   ',    'GIGCchem',
                    'SPC_ISOG1   ',    'GIGCchem',
                    'SPC_ISOG2   ',    'GIGCchem',
                    'SPC_ISOG3   ',    'GIGCchem',
                    'SPC_ISOA1   ',    'GIGCchem',
                    'SPC_ISOA2   ',    'GIGCchem',
                    'SPC_ISOA3   ',    'GIGCchem',
                    'SPC_ASOG1   ',    'GIGCchem',
                    'SPC_ASOG2   ',    'GIGCchem',
                    'SPC_ASOG3   ',    'GIGCchem',
                    'SPC_ASOAN   ',    'GIGCchem',
                    'SPC_ASOA1   ',    'GIGCchem',
                    'SPC_ASOA2   ',    'GIGCchem',
                    'SPC_ASOA3   ',    'GIGCchem',
                    'SPC_SOAP    ',    'GIGCchem',
                    'SPC_SOAS    ',    'GIGCchem',
                    'SPC_EOH     ',    'GIGCchem',
                    'SPC_MGLY    ',    'GIGCchem',
                    'SPC_GLYX    ',    'GIGCchem',
                    'SPC_ACTA    ',    'GIGCchem',
                    'SPC_HPALD   ',    'GIGCchem',
                    'SPC_DHDN    ',    'GIGCchem',
                    'SPC_ETHLN   ',    'GIGCchem',
                    'SPC_HCOOH   ',    'GIGCchem',
                    'SPC_IEPOXA  ',    'GIGCchem',
                    'SPC_IEPOXB  ',    'GIGCchem',
                    'SPC_IEPOXD  ',    'GIGCchem',
                    'SPC_ISN1    ',    'GIGCchem',
                    'SPC_RIPA    ',    'GIGCchem',
                    'SPC_RIPB    ',    'GIGCchem',
                    'SPC_RIPD    ',    'GIGCchem',
                    'SPC_IMAE    ',    'GIGCchem',
                    'SPC_SOAIE   ',    'GIGCchem',
                    'SPC_SOAME   ',    'GIGCchem',
                    'SPC_SOAGX   ',    'GIGCchem',
                    'SPC_SOAMG   ',    'GIGCchem',
                    'SPC_LVOC    ',    'GIGCchem',
                    'SPC_LVOCOA  ',    'GIGCchem',
                    'SPC_ISN1OG  ',    'GIGCchem',
                    'SPC_ISN1OA  ',    'GIGCchem',
                    'SPC_MONITS  ',    'GIGCchem',
                    'SPC_MONITU  ',    'GIGCchem',
                    'SPC_HONIT   ',    'GIGCchem',
                    'SPC_IONITA  ',    'GIGCchem',
                    'SPC_MONITA  ',    'GIGCchem',
                    'SPC_INDIOL  ',    'GIGCchem',
                    'SPC_IPMN    ',    'GIGCchem',
                    'SPC_HC187   ',    'GIGCchem',
                    'SPC_N2O     ',    'GIGCchem',
                    'SPC_OCS     ',    'GIGCchem',
                    'SPC_CH4     ',    'GIGCchem',
                    'SPC_BrCl    ',    'GIGCchem',
                    'SPC_HCl     ',    'GIGCchem',
                    'SPC_CCl4    ',    'GIGCchem',
                    'SPC_CH3Cl   ',    'GIGCchem',
                    'SPC_CH3CCl3 ',    'GIGCchem',
                    'SPC_CFC113  ',    'GIGCchem',
                    'SPC_CFC114  ',    'GIGCchem',
                    'SPC_CFC115  ',    'GIGCchem',
                    'SPC_HCFC123 ',    'GIGCchem',
                    'SPC_HCFC141b',    'GIGCchem',
                    'SPC_HCFC142b',    'GIGCchem',
                    'SPC_CFC11   ',    'GIGCchem',
                    'SPC_CFC12   ',    'GIGCchem',
                    'SPC_HCFC22  ',    'GIGCchem',
                    'SPC_H1211   ',    'GIGCchem',
                    'SPC_H1301   ',    'GIGCchem',
                    'SPC_H2402   ',    'GIGCchem',
                    'SPC_Cl      ',    'GIGCchem',
                    'SPC_ClO     ',    'GIGCchem',
                    'SPC_HOCl    ',    'GIGCchem',
                    'SPC_ClNO3   ',    'GIGCchem',
                    'SPC_ClNO2   ',    'GIGCchem',
                    'SPC_ClOO    ',    'GIGCchem',
                    'SPC_OClO    ',    'GIGCchem',
                    'SPC_Cl2     ',    'GIGCchem',
                    'SPC_Cl2O2   ',    'GIGCchem',
                    'SPC_H2O     ',    'GIGCchem',
  			  ::


