#!/bin/bash
#$ -l h_rt=01:00:00
#$ -l h_vmem=50G
#$ -l h_stack=10G
#$ -pe ompi* 6
#$ -cwd

echo "This run using $NSLOTS cores on these hosts:"
cat $PE_HOSTFILE

# Define GEOS-Chem log file
log="GCHP.log"

# Sync all config files with settings in runConfig.sh                           
./runConfig.sh > runConfig.log
if [[ $? == 0 ]]; then

    # Set and source your bashrc
    BASHRC=bashrcSamples/GCHP.ifort15_mvapich2_odyssey.bashrc
    echo "WARNING: You are using environment settings in $BASHRC"
    source $BASHRC

    # Run the code
    mpirun ./geos >> $log
    
    echo '===> Run ended at' `date` >> $log

else
    cat runConfig.log
fi

trap times EXIT


