This is the GEOS-Chem run directory for the 2x2.5 POPs simulation.  This
directory can be used with GEOS-FP or MERRA-2 meteorology.

The various input files (e.g. HEMCO_Config.template, HISTORY.rc, etc.) are
stored in ../shared_inputs/POPs.  This allows us to keep a single set of 
these files in one location, for convenience.  A new HEMCO_Config.rc file will 
be created from the HEMCO_Config.template file each time the unit tester is 
run.

A new input.geos file will also be created from the input.geos.template file
each time the unit tester is run.  This allows the location of the data
files to be customized for each user.

We provide three input.geos.template and three HEMCO_Config.template files, one
for each of the possible POPs species:

  (1) PHE: phenanthrene
  (2) PYR: pyrene
  (3) BaP: benzo[a]pyrene

The default input.geos.template and HEMCO_Config.template files are symbolically
linked to the files for PHE. To change POPs species for your simulation, you
can modify the symbolic links. Type the following commands:

  rm input.geos.template
  ln -s input.geos.template.[SPECIES] input.geos.template

  rm HEMCO_Config.template
  ln -s ../HEMCO_Config.template.POPs.[SPECIES] HEMCO_Config.template

13 Feb 2018
GEOS-Chem Support Team
geos-chem-support@as.harvard.edu
