This directory contains the chemistry input files for the simple SOA mechanism.
We keep the files here so that they can be symbolically linked to other
directories.

For more information about this chemistry mechanism see:

  http://wiki.seas.harvard.edu/geos-chem/index.php/NOx-Ox-HC-aerosol

10 Aug 2017
GEOS-Chem Support Team
geos-chem-support@as.harvard.edu