GEOS-CHEM UNIT TEST SIMULATION: {MET}_4x5_TOMAS40
------------------------+------------------------------------------------------
%%% SIMULATION MENU %%% :
Start YYYYMMDD, HHMMSS  : {DATE1} {TIME1}
End   YYYYMMDD, HHMMSS  : {DATE2} {TIME2}
Run directory           : ./
Input restart file      : {DATA_ROOT}/SPC_RESTARTS/initial_GEOSChem_rst.4x5_TOMAS40.nc
Root data directory     : {DATA_ROOT}
 => GCAP    subdir      : AGRID/YYYY/MM/
 => GEOS-4  subdir      : GEOS_4_v4/YYYY/MM/
 => GEOS-5  subdir      : GEOS_5/YYYY/MM/
 => GEOS-FP subdir      : GEOS_FP/YYYY/MM/
 => MERRA   subdir      : MERRA/YYYY/MM/
 => MERRA2  subdir      : MERRA2/YYYY/MM/
Dir w/ 1x1 emissions etc: {DATA_ROOT}/GEOS_NATIVE/
Temporary directory     : ./
Unzip met fields?       : F
Wait for met fields?    : F
Use variable tropopause?: T
Global offsets I0, J0   : 0 0
------------------------+------------------------------------------------------
%%% TRACER MENU %%%     : 
Type of simulation      : 3
Number of Tracers       : 425
Tracer Entries -------> : TR#   Name  g/mole   Tracer Members; () = emitted 
Tracer #1               :   1   NO      30.0   (NO)
Tracer #2               :   2   O3      48.0   (O3)
Tracer #3               :   3   PAN    121.0
Tracer #4               :   4   CO      28.0   (CO)
Tracer #5               :   5   ALK4    12.0   (4C)
Tracer #6               :   6   ISOP    12.0   (5C)
Tracer #7               :   7   HNO3    63.0   (HNO3)
Tracer #8               :   8   H2O2    34.0
Tracer #9               :   9   ACET    12.0   (3C)
Tracer #10              :  10   MEK     12.0   (4C)
Tracer #11              :  11   ALD2    12.0   (2C)
Tracer #12              :  12   RCHO    58.0
Tracer #13              :  13   MVK     70.0
Tracer #14              :  14   MACR    70.0
Tracer #15              :  15   PMN    147.0
Tracer #16              :  16   PPN    135.0
Tracer #17              :  17   R4N2   119.0
Tracer #18              :  18   PRPE    12.0   (3C)
Tracer #19              :  19   C3H8    12.0   (3C)
Tracer #20              :  20   CH2O    30.0   (CH2O)
Tracer #21              :  21   C2H6    12.0   (2C)
Tracer #22              :  22   N2O5   105.0
Tracer #23              :  23   HNO4    79.0
Tracer #24              :  24   MP      48.0
Tracer #25              :  25   DMS     62.0
Tracer #26              :  26   SO2     64.0
Tracer #27              :  27   SO4     96.0
Tracer #28              :  28   SO4s    96.0
Tracer #29              :  29   MSA     96.0
Tracer #30              :  30   NH3     17.0
Tracer #31              :  31   NH4     18.0
Tracer #32              :  32   NIT     62.0
Tracer #33              :  33   NITs    62.0
Tracer #34              :  34   BCPI    12.0
Tracer #35              :  35   OCPI    12.0
Tracer #36              :  36   BCPO    12.0
Tracer #37              :  37   OCPO    12.0
Tracer #38              :  38   SALA    36.0
Tracer #39              :  39   SALC    36.0
Tracer #40              :  40   Br2    160.0   (Br2)
Tracer #41              :  41   Br      80.0
Tracer #42              :  42   BrO     96.0
Tracer #43              :  43   HOBr    97.0
Tracer #44              :  44   HBr     81.0
Tracer #45              :  45   BrNO2  126.0
Tracer #46              :  46   BrNO3  142.0
Tracer #47              :  47   CHBr3  253.0   (CHBr3)
Tracer #48              :  48   CH2Br2 174.0   (CH2Br2)
Tracer #49              :  49   CH3Br   95.0
Tracer #50              :  50   MPN     93.0
Tracer #51              :  51   ISOPND  147.0
Tracer #52              :  52   ISOPNB  147.0
Tracer #53              :  53   MOBA   114.0
Tracer #54              :  54   PROPNN 119.0   PROPNN
Tracer #55              :  55   HAC     74.0 
Tracer #56              :  56   GLYC    60.0 
Tracer #57              :  57   MVKN   149.0
Tracer #58              :  58   MACRN  149.0
Tracer #59              :  59   RIP    118.0
Tracer #60              :  60   IEPOX  118.0
Tracer #61              :  61   MAP     76.0
Tracer #62              :  62   NO2     46.0
Tracer #63              :  63   NO3     62.0
Tracer #64              :  64   HNO2    47.0
Tracer #65              :  65   H2SO4   98.0
Tracer #66              :  66   NK1      1.0
Tracer #67              :  67   NK2      1.0
Tracer #68              :  68   NK3      1.0
Tracer #69              :  69   NK4      1.0
Tracer #70              :  70   NK5      1.0
Tracer #71              :  71   NK6      1.0
Tracer #72              :  72   NK7      1.0
Tracer #73              :  73   NK8      1.0
Tracer #74              :  74   NK9      1.0
Tracer #75              :  75   NK10     1.0
Tracer #76              :  76   NK11     1.0
Tracer #77              :  77   NK12     1.0
Tracer #78              :  78   NK13     1.0
Tracer #79              :  79   NK14     1.0
Tracer #80              :  80   NK15     1.0
Tracer #81              :  81   NK16     1.0
Tracer #82              :  82   NK17     1.0
Tracer #83              :  83   NK18     1.0
Tracer #84              :  84   NK19     1.0
Tracer #85              :  85   NK20     1.0
Tracer #86              :  86   NK21     1.0
Tracer #87              :  87   NK22     1.0
Tracer #88              :  88   NK23     1.0
Tracer #89              :  89   NK24     1.0
Tracer #90              :  90   NK25     1.0
Tracer #91              :  91   NK26     1.0
Tracer #92              :  92   NK27     1.0
Tracer #93              :  93   NK28     1.0
Tracer #94              :  94   NK29     1.0
Tracer #95              :  95   NK30     1.0
Tracer #96              :  96   NK31     1.0
Tracer #97              :  97   NK32     1.0
Tracer #98              :  98   NK33     1.0
Tracer #99              :  99   NK34     1.0
Tracer #100             :  100  NK35     1.0
Tracer #101             :  101  NK36     1.0
Tracer #102             : 102   NK37     1.0
Tracer #103             : 103   NK38     1.0
Tracer #104             : 104   NK39     1.0
Tracer #105             : 105   NK40     1.0
Tracer #106             : 106   SF1     96.0
Tracer #107             : 107   SF2     96.0
Tracer #108             : 108   SF3     96.0
Tracer #109             : 109   SF4     96.0
Tracer #110             : 110   SF5     96.0
Tracer #111             : 111   SF6     96.0
Tracer #112             : 112   SF7     96.0
Tracer #113             : 113   SF8     96.0
Tracer #114             : 114   SF9     96.0
Tracer #115             : 115   SF10    96.0
Tracer #116             : 116   SF11    96.0
Tracer #117             : 117   SF12    96.0
Tracer #118             : 118   SF13    96.0
Tracer #119             : 119   SF14    96.0
Tracer #120             : 120   SF15    96.0
Tracer #121             : 121   SF16    96.0
Tracer #122             : 122   SF17    96.0
Tracer #123             : 123   SF18    96.0
Tracer #124             : 124   SF19    96.0
Tracer #125             : 125   SF20    96.0
Tracer #126             : 126   SF21    96.0
Tracer #127             : 127   SF22    96.0
Tracer #128             : 128   SF23    96.0
Tracer #129             : 129   SF24    96.0
Tracer #130             : 130   SF25    96.0
Tracer #131             : 131   SF26    96.0
Tracer #132             : 132   SF27    96.0
Tracer #133             : 133   SF28    96.0
Tracer #134             : 134   SF29    96.0
Tracer #135             : 135   SF30    96.0
Tracer #136             : 136   SF31    96.0
Tracer #137             : 137   SF32    96.0
Tracer #138             : 138   SF33    96.0
Tracer #139             : 139   SF34    96.0
Tracer #140             : 140   SF35    96.0
Tracer #141             : 141   SF36    96.0
Tracer #142             : 142   SF37    96.0
Tracer #143             : 143   SF38    96.0
Tracer #144             : 144   SF39    96.0
Tracer #145             : 145   SF40    96.0
Tracer #146             : 146   SS1     58.5
Tracer #147             : 147   SS2     58.5
Tracer #148             : 148   SS3     58.5
Tracer #149             : 149   SS4     58.5
Tracer #150             : 150   SS5     58.5
Tracer #151             : 151   SS6     58.5
Tracer #152             : 152   SS7     58.5
Tracer #153             : 153   SS8     58.5
Tracer #154             : 154   SS9     58.5
Tracer #155             : 155   SS10    58.5
Tracer #156             : 156   SS11    58.5
Tracer #157             : 157   SS12    58.5
Tracer #158             : 158   SS13    58.5
Tracer #159             : 159   SS14    58.5
Tracer #160             : 160   SS15    58.5
Tracer #161             : 161   SS16    58.5
Tracer #162             : 162   SS17    58.5
Tracer #163             : 163   SS18    58.5
Tracer #164             : 164   SS19    58.5
Tracer #165             : 165   SS20    58.5
Tracer #166             : 166   SS21    58.5
Tracer #167             : 167   SS22    58.5
Tracer #168             : 168   SS23    58.5
Tracer #169             : 169   SS24    58.5
Tracer #170             : 170   SS25    58.5
Tracer #171             : 171   SS26    58.5
Tracer #172             : 172   SS27    58.5
Tracer #173             : 173   SS28    58.5
Tracer #174             : 174   SS29    58.5
Tracer #175             : 175   SS30    58.5
Tracer #176             : 176   SS31    58.5
Tracer #177             : 177   SS32    58.5
Tracer #178             : 178   SS33    58.5
Tracer #179             : 179   SS34    58.5
Tracer #180             : 180   SS35    58.5
Tracer #181             : 181   SS36    58.5
Tracer #182             : 182   SS37    58.5
Tracer #183             : 183   SS38    58.5
Tracer #184             : 184   SS39    58.5
Tracer #185             : 185   SS40    58.5
Tracer #186             : 186   ECOB1   12.0
Tracer #187             : 187   ECOB2   12.0
Tracer #188             : 188   ECOB3   12.0
Tracer #189             : 189   ECOB4   12.0
Tracer #190             : 190   ECOB5   12.0
Tracer #191             : 191   ECOB6   12.0
Tracer #192             : 192   ECOB7   12.0
Tracer #193             : 193   ECOB8   12.0
Tracer #194             : 194   ECOB9   12.0
Tracer #195             : 195   ECOB10  12.0
Tracer #196             : 196   ECOB11  12.0
Tracer #197             : 197   ECOB12  12.0
Tracer #198             : 198   ECOB13  12.0
Tracer #199             : 199   ECOB14  12.0
Tracer #200             : 200   ECOB15  12.0
Tracer #201             : 201   ECOB16  12.0
Tracer #202             : 202   ECOB17  12.0
Tracer #203             : 203   ECOB18  12.0
Tracer #204             : 204   ECOB19  12.0
Tracer #205             : 205   ECOB20  12.0
Tracer #206             : 206   ECOB21  12.0
Tracer #207             : 207   ECOB22  12.0
Tracer #208             : 208   ECOB23  12.0
Tracer #209             : 209   ECOB24  12.0
Tracer #210             : 210   ECOB25  12.0
Tracer #211             : 211   ECOB26  12.0
Tracer #212             : 212   ECOB27  12.0
Tracer #213             : 213   ECOB28  12.0
Tracer #214             : 214   ECOB29  12.0
Tracer #215             : 215   ECOB30  12.0
Tracer #216             : 216   ECOB31  12.0
Tracer #217             : 217   ECOB32  12.0
Tracer #218             : 218   ECOB33  12.0
Tracer #219             : 219   ECOB34  12.0
Tracer #220             : 220   ECOB35  12.0
Tracer #221             : 221   ECOB36  12.0
Tracer #222             : 222   ECOB37  12.0
Tracer #223             : 223   ECOB38  12.0
Tracer #224             : 224   ECOB39  12.0
Tracer #225             : 225   ECOB40  12.0
Tracer #226             : 226   ECIL1   12.0
Tracer #227             : 227   ECIL2   12.0
Tracer #228             : 228   ECIL3   12.0
Tracer #229             : 229   ECIL4   12.0
Tracer #230             : 230   ECIL5   12.0
Tracer #231             : 231   ECIL6   12.0
Tracer #232             : 232   ECIL7   12.0
Tracer #233             : 233   ECIL8   12.0
Tracer #234             : 234   ECIL9   12.0
Tracer #235             : 235   ECIL10  12.0
Tracer #236             : 236   ECIL11  12.0
Tracer #237             : 237   ECIL12  12.0
Tracer #238             : 238   ECIL13  12.0
Tracer #239             : 239   ECIL14  12.0
Tracer #240             : 240   ECIL15  12.0
Tracer #241             : 241   ECIL16  12.0
Tracer #242             : 242   ECIL17  12.0
Tracer #243             : 243   ECIL18  12.0
Tracer #244             : 244   ECIL19  12.0
Tracer #245             : 245   ECIL20  12.0
Tracer #246             : 246   ECIL21  12.0
Tracer #247             : 247   ECIL22  12.0
Tracer #248             : 248   ECIL23  12.0
Tracer #249             : 249   ECIL24  12.0
Tracer #250             : 250   ECIL25  12.0
Tracer #251             : 251   ECIL26  12.0
Tracer #252             : 252   ECIL27  12.0
Tracer #253             : 253   ECIL28  12.0
Tracer #254             : 254   ECIL29  12.0
Tracer #255             : 255   ECIL30  12.0
Tracer #256             : 256   ECIL31  12.0
Tracer #257             : 257   ECIL32  12.0
Tracer #258             : 258   ECIL33  12.0
Tracer #259             : 259   ECIL34  12.0
Tracer #260             : 260   ECIL35  12.0
Tracer #261             : 261   ECIL36  12.0
Tracer #262             : 262   ECIL37  12.0
Tracer #263             : 263   ECIL38  12.0
Tracer #264             : 264   ECIL39  12.0
Tracer #265             : 265   ECIL40  12.0
Tracer #266             : 266   OCOB1   12.0
Tracer #267             : 267   OCOB2   12.0
Tracer #268             : 268   OCOB3   12.0
Tracer #269             : 269   OCOB4   12.0
Tracer #270             : 270   OCOB5   12.0
Tracer #271             : 271   OCOB6   12.0
Tracer #272             : 272   OCOB7   12.0
Tracer #273             : 273   OCOB8   12.0
Tracer #274             : 274   OCOB9   12.0
Tracer #275             : 275   OCOB10  12.0
Tracer #276             : 276   OCOB11  12.0
Tracer #277             : 277   OCOB12  12.0
Tracer #278             : 278   OCOB13  12.0
Tracer #279             : 279   OCOB14  12.0
Tracer #280             : 280   OCOB15  12.0
Tracer #281             : 281   OCOB16  12.0
Tracer #282             : 282   OCOB17  12.0
Tracer #283             : 283   OCOB18  12.0
Tracer #284             : 284   OCOB19  12.0
Tracer #285             : 285   OCOB20  12.0
Tracer #286             : 286   OCOB21  12.0
Tracer #287             : 287   OCOB22  12.0
Tracer #288             : 288   OCOB23  12.0
Tracer #289             : 289   OCOB24  12.0
Tracer #290             : 290   OCOB25  12.0
Tracer #291             : 291   OCOB26  12.0
Tracer #292             : 292   OCOB27  12.0
Tracer #293             : 293   OCOB28  12.0
Tracer #294             : 294   OCOB29  12.0
Tracer #295             : 295   OCOB30  12.0
Tracer #296             : 296   OCOB31  12.0
Tracer #297             : 297   OCOB32  12.0
Tracer #298             : 298   OCOB33  12.0
Tracer #299             : 299   OCOB34  12.0
Tracer #300             : 300   OCOB35  12.0
Tracer #301             : 301   OCOB36  12.0
Tracer #302             : 302   OCOB37  12.0
Tracer #303             : 303   OCOB38  12.0
Tracer #304             : 304   OCOB39  12.0
Tracer #305             : 305   OCOB40  12.0
Tracer #306             : 306   OCIL1   12.0
Tracer #307             : 307   OCIL2   12.0
Tracer #308             : 308   OCIL3   12.0
Tracer #309             : 309   OCIL4   12.0
Tracer #310             : 310   OCIL5   12.0
Tracer #311             : 311   OCIL6   12.0
Tracer #312             : 312   OCIL7   12.0
Tracer #313             : 313   OCIL8   12.0
Tracer #314             : 314   OCIL9   12.0
Tracer #315             : 315   OCIL10  12.0
Tracer #316             : 316   OCIL11  12.0
Tracer #317             : 317   OCIL12  12.0
Tracer #318             : 318   OCIL13  12.0
Tracer #319             : 319   OCIL14  12.0
Tracer #320             : 320   OCIL15  12.0
Tracer #321             : 321   OCIL16  12.0
Tracer #322             : 322   OCIL17  12.0
Tracer #323             : 323   OCIL18  12.0
Tracer #324             : 324   OCIL19  12.0
Tracer #325             : 325   OCIL20  12.0
Tracer #326             : 326   OCIL21  12.0
Tracer #327             : 327   OCIL22  12.0
Tracer #328             : 328   OCIL23  12.0
Tracer #329             : 329   OCIL24  12.0
Tracer #330             : 330   OCIL25  12.0
Tracer #331             : 331   OCIL26  12.0
Tracer #332             : 332   OCIL27  12.0
Tracer #333             : 333   OCIL28  12.0
Tracer #334             : 334   OCIL29  12.0
Tracer #335             : 335   OCIL30  12.0
Tracer #336             : 336   OCIL31  12.0
Tracer #337             : 337   OCIL32  12.0
Tracer #338             : 338   OCIL33  12.0
Tracer #339             : 339   OCIL34  12.0
Tracer #340             : 340   OCIL35  12.0
Tracer #341             : 341   OCIL36  12.0
Tracer #342             : 342   OCIL37  12.0
Tracer #343             : 343   OCIL38  12.0
Tracer #344             : 344   OCIL39  12.0
Tracer #345             : 345   OCIL40  12.0
Tracer #346             : 346   DUST1  100.0
Tracer #347             : 347   DUST2  100.0
Tracer #348             : 348   DUST3  100.0
Tracer #349             : 349   DUST4  100.0
Tracer #350             : 350   DUST5  100.0
Tracer #351             : 351   DUST6  100.0
Tracer #352             : 352   DUST7  100.0
Tracer #353             : 353   DUST8  100.0
Tracer #354             : 354   DUST9  100.0
Tracer #355             : 355   DUST10 100.0
Tracer #356             : 356   DUST11 100.0
Tracer #357             : 357   DUST12 100.0
Tracer #358             : 358   DUST13 100.0
Tracer #359             : 359   DUST14 100.0
Tracer #360             : 360   DUST15 100.0
Tracer #361             : 361   DUST16 100.0
Tracer #362             : 362   DUST17 100.0
Tracer #363             : 363   DUST18 100.0
Tracer #364             : 364   DUST19 100.0
Tracer #365             : 365   DUST20 100.0
Tracer #366             : 366   DUST21 100.0
Tracer #367             : 367   DUST22 100.0
Tracer #368             : 368   DUST23 100.0
Tracer #369             : 369   DUST24 100.0
Tracer #370             : 370   DUST25 100.0
Tracer #371             : 371   DUST26 100.0
Tracer #372             : 372   DUST27 100.0
Tracer #373             : 373   DUST28 100.0
Tracer #374             : 374   DUST29 100.0
Tracer #375             : 375   DUST30 100.0
Tracer #376             : 376   DUST31 100.0
Tracer #377             : 377   DUST32 100.0
Tracer #378             : 378   DUST33 100.0
Tracer #379             : 379   DUST34 100.0
Tracer #380             : 380   DUST35 100.0
Tracer #381             : 381   DUST36 100.0
Tracer #382             : 382   DUST37 100.0
Tracer #383             : 383   DUST38 100.0
Tracer #384             : 384   DUST39 100.0
Tracer #385             : 385   DUST40 100.0
Tracer #386             : 386   AW1     18.0
Tracer #387             : 387   AW2     18.0
Tracer #388             : 388   AW3     18.0
Tracer #389             : 389   AW4     18.0
Tracer #390             : 390   AW5     18.0
Tracer #391             : 391   AW6     18.0
Tracer #392             : 392   AW7     18.0
Tracer #393             : 393   AW8     18.0
Tracer #394             : 394   AW9     18.0
Tracer #395             : 395   AW10    18.0
Tracer #396             : 396   AW11    18.0
Tracer #397             : 397   AW12    18.0
Tracer #398             : 398   AW13    18.0
Tracer #399             : 399   AW14    18.0
Tracer #400             : 400   AW15    18.0
Tracer #401             : 401   AW16    18.0
Tracer #402             : 402   AW17    18.0
Tracer #403             : 403   AW18    18.0
Tracer #404             : 404   AW19    18.0
Tracer #405             : 405   AW20    18.0
Tracer #406             : 406   AW21    18.0
Tracer #407             : 407   AW22    18.0
Tracer #408             : 408   AW23    18.0
Tracer #409             : 409   AW24    18.0
Tracer #410             : 410   AW25    18.0
Tracer #411             : 411   AW26    18.0
Tracer #412             : 412   AW27    18.0
Tracer #413             : 413   AW28    18.0
Tracer #414             : 414   AW29    18.0
Tracer #415             : 415   AW30    18.0
Tracer #416             : 416   AW31    18.0
Tracer #417             : 417   AW32    18.0
Tracer #418             : 418   AW33    18.0
Tracer #419             : 419   AW34    18.0
Tracer #420             : 420   AW35    18.0
Tracer #421             : 421   AW36    18.0
Tracer #422             : 422   AW37    18.0
Tracer #423             : 423   AW38    18.0
Tracer #424             : 424   AW39    18.0
Tracer #425             : 425   AW40    18.0
------------------------+------------------------------------------------------
%%% TRANSPORT MENU %%%  :
Turn on Transport       : T
 => Fill Negative Values: T 
 => IORD, JORD, KORD    : 3  3  7
Transport Timestep [min]: 10
------------------------+------------------------------------------------------
%%% CONVECTION MENU %%% :
Turn on Cloud Conv?     : T
Turn on PBL Mixing?     : T
 => Use non-local PBL?  : F
Convect Timestep [min]  : 10
------------------------+------------------------------------------------------
%%% EMISSIONS MENU %%%  :
Turn on emissions?      : T
Emiss Timestep [min]    : 20
HEMCO Input file        : HEMCO_Config.rc
 => 1ppt MBL BRO Sim.?  : F
Switches for UCX        :---
 => Use CH4 emissions?  : F
 => Turn on surface BCs :---
    => CH4?             : F
    => OCS?             : F
    => CFCs?            : F
    => Cl species?      : F
    => Br species?      : F
    => N2O?             : F
 => Set initial glob MRs:---
    => strat. H2O?      : F
    => CH4?             : F
    => OCS?             : F
    => CFCs?            : F
    => Cl species?      : F
    => strat Bry (GCCM)?: F
    => Br species?      : F
    => strat. Br?       : F
    => strat. NOx/HNO3? : F
    => N2O?             : F
    => strat. SO4?      : F
 => CFC emission year   : 0
------------------------+------------------------------------------------------
%%% AEROSOL MENU %%%    :
Online SULFATE AEROSOLS : T
Online CRYST/AQ AEROSOLS: F
Online CARBON  AEROSOLS : T
 => Use Brown Carbon?   : F
Online 2dy ORG AEROSOLS : F
 => Semivolatile POA?   : F
Online DUST    AEROSOLS : T
 => Acidic uptake ?     : F
Online SEASALT AEROSOLS : T
 => SALA radius bin [um]: 0.01 0.5
 => SALC radius bin [um]: 0.5  8.0
 => MARINE ORG AEROSOLS : F
Online dicarb. chem.    : F
Settle strat. aerosols  : F
Online PSC AEROSOLS     : F
Allow homogeneous NAT?  : F
NAT supercooling req.(K): 3.0
Ice supersaturation req.: 1.2
Perform PSC het. chem.? : F
Calc. strat. aero. OD?  : F
------------------------+------------------------------------------------------
%%% DEPOSITION MENU %%% :
Turn on Dry Deposition? : T
Turn on Wet Deposition? : T
------------------------+------------------------------------------------------
%%% CHEMISTRY MENU %%%  : 
Turn on Chemistry?      : T
Use linear. strat. chem?: F
 => Use Linoz for O3?   : T
Use UCX strat. chem?    : F
Online CH4 chemistry?   : F
Active strat. H2O?      : F
Chemistry Timestep [min]: 20
Online O3 for FAST-JX?  : T
Gamma HO2               : 0.2
------------------------+------------------------------------------------------
%%% RADIATION MENU %%%  :
AOD Wavelength (nm)     : 550
Turn on RRTMG?          : F
Calculate LW fluxes?    : F
Calculate SW fluxes?    : F
Clear-sky flux?         : F
All-sky flux?           : F
Radiation Timestep [min]: 180
Species fluxes          : 0 0 0 0 0 0 0 0 0 1
 ---[O3,ME,SU,NI,AM,BC,OA,SS,DU,PM]
------------------------+------------------------------------------------------
%%% OUTPUT MENU %%%     : 123456789.123456789.123456789.1--1=ZERO+2=BPCH 
Schedule output for JAN : 3000000000000000000000000000000
Schedule output for FEB : 30000000000000000000000000000
Schedule output for MAR : 3000000000000000000000000000000
Schedule output for APR : 300000000000000000000000000000
Schedule output for MAY : 3000000000000000000000000000000
Schedule output for JUN : 300000000000000000000000000000
Schedule output for JUL : 3000000000000000000000000000000
Schedule output for AUG : 3000000000000000000000000000000
Schedule output for SEP : 300000000000000000000000000000
Schedule output for OCT : 3000000000000000000000000000000
Schedule output for NOV : 300000000000000000000000000000
Schedule output for DEC : 3000000000000000000000000000000
------------------------+------------------------------------------------------
%%% GAMAP MENU %%%      :
diaginfo.dat path       : diaginfo.dat
tracerinfo.dat path     : tracerinfo.dat
------------------------+------------------------------------------------------
%%% DIAGNOSTIC MENU %%% : 
Binary punch file name  : trac_avg.{MET}_4x5_TOMAS40.YYYYMMDDhhmm
Diagnostic Entries ---> :  L   Tracers to print out for each diagnostic
ND01: Rn/Pb/Be source   :  0   all        
ND02: Rn/Pb/Be decay    :  0   all             
ND03: Hg emissions, P/L :  0   all                
ND04: CO2 Sources       :  0   all                
ND05: Sulfate prod/loss : 47   all               
ND06: Dust aer source   :  1   all                
ND07: Carbon aer source : 47   all                
ND08: Seasalt aer source:  1   all                
ND09: -                 :  0   all                
ND10: -                 :  0   all                
ND11: Acetone sources   :  1   all                 
ND12: BL fraction       :  0   all              
ND13: Sulfur sources    : 47   all                
ND14: Cld conv mass flx :  0   all                
ND15: BL mix mass flx   :  0   all                
ND16: LS/Conv prec frac :  0   all               
ND17: Rainout fraction  :  0   all            
ND18: Washout fraction  :  0   all            
ND19: CH4 loss          :  0   all            
ND21: Optical depths    : 47   all            
ND22: J-Values          : 47   1 2 7 8 9 11 13 14 20 44 46 47 49 50 51 59 60 66 67
      => JV time range  :      11 13
ND24: E/W transpt flx   :  0   all
ND25: N/S transpt flx   :  0   all
ND26: U/D transpt flx   :  0   all
ND27: Strat NOx,Ox,HNO3 :  0   1 2 7
ND28: Biomass emissions :  1   1 4 5 9 10 11 18 19 20 21 26 30 34 35
ND29: CO sources        :  1   all
ND30: Land Map          :  0   all
ND31: Surface pressure  : 48   all
ND32: NOx sources       :  1   all
ND33: Column tracer     :  0   all
ND34: Biofuel emissions :  1   1 4 5 9 10 11 18 19 20 21
ND35: Tracers at 500 mb :  0   all
ND36: Anthro emissions  :  1   1 2 4 5 7 9 10 11 18 19 20 21
ND37: Updraft scav frac : 47   all
ND38: Cld Conv scav loss: 47   all
ND39: Wetdep scav loss  : 47   all
ND41: Afternoon PBL ht  :  0   all
ND42: SOA concentrations:  0   all
ND43: Chem prod OH, HO2 : 47   all
  ==> OH/HO2 time range :       0 24   
ND44: Drydep flx/vel    :  1   2 3 7 8 9 11 13 14 15 16 17 20 22 26 27 28 29 30 31 32 33 34 35 36 37 38 39 40 41 42 43 44 47 48 50 55 56 58 59 60 61 62 63 64 65 66
ND45: Tracer Conc's     : 47   all 
  ==> ND45 Time range   :       0 24
ND46: Biogenic emissions:  1   all
ND47: 24-h avg trc conc :  0   all
ND52: GAMMA HO2         :  0   all
ND53: POPs Emissions    :  0   all
ND54: Time in t'sphere  : 47   all
ND55: Tropopause height : 47   all
ND56: Lightning flashes : 47   all
ND57: Potential T       : 47   all
ND58: CH4 Emissions     :  0   all
ND59: TOMAS aerosol emis: 47   all
ND60: TOMAS microphysics:  0   64-383
ND61: TOMAS 3D rate     : 47   all
ND62: Inst column maps  :  0   all
ND64: Radiative flux    :  0   all
ND66: DAO 3-D fields    : 47   all
ND67: DAO 2-D fields    : 47   all
ND68: Airmass/Boxheight : 47   all
ND69: Surface area      :  1   all
ND70: Debug output      :  0   all
ND71: Hourly max ppbv   :  0   2
ND72: Radiative output  :  0   all
------------------------+------------------------------------------------------
%%% PLANEFLIGHT MENU %%%:
Turn on plane flt diag? : F
Flight track info file  : Planeflight.dat.YYYYMMDD
Output file name        : plane.log.YYYYMMDD
------------------------+------------------------------------------------------
%%% ND48 MENU %%%       :
Turn on ND48 stations   : F
Station Timeseries file : stations.YYYYMMDD
Frequency [min]         :  60
Number of stations      :   0
------------------------+------------------------------------------------------
%%% ND49 MENU %%%       :
Turn on ND49 diagnostic : F
Inst 3-D timeser. file  : tsYYYYMMDD.bpch
Tracers to include      : 94 
Frequency [min]         : 120
IMIN, IMAX of region    :  70  30
JMIN, JMAX of region    :  23  46
LMIN, LMAX of region    :   1   1
-------------------------------------------------------------------------------
%%% ND50 MENU %%%       :
Turn on ND50 diagnostic : F
24-hr avg timeser. file : ts_24h_avg.YYYYMMDD.bpch
Output as HDF5?         : F
Tracers to include      : 82 83 84 85 86 87
IMIN, IMAX of region    :   1  72
JMIN, JMAX of region    :   1  46
LMIN, LMAX of region    :   1   1
-------------------------------------------------------------------------------
%%% ND51 MENU %%%       :
Turn on ND51 diagnostic : F
LT avg timeseries file  : ts_satellite.YYYYMMDD.bpch
Output as HDF5?         : F
Tracers to include      : 82 83 84 85 86 87
GMT Hour for disk write :   0
Avg Period [LT hours]   :  10  12
IMIN, IMAX of region    :   1 151
JMIN, JMAX of region    :   1 121
LMIN, LMAX of region    :   1  40
-------------------------------------------------------------------------------
%%% ND51b MENU %%%      :
Turn on ND51b diagnstic : F
LT avg timeseries file  : ts_13_15.NA.YYYYMMDD.h5
Output as HDF5?         : F
Tracers to include      : 1 4 20 25 26 27 28 29 30 31 32 33 34 35 36 37 38 39 40 41 42 43 44 45 46 47 48 49 50 51 52 53 54 60 61 62 63 64 65 66 72 73 75 82 83 84 85 86 87 93 94 98 99
GMT Hour for disk write :  1
Avg Period [LT hours]   :  13  15
IMIN, IMAX of region    :   1  72
JMIN, JMAX of region    :   1  46
LMIN, LMAX of region    :   1   1
------------------------+------------------------------------------------------
%%% ND63 MENU %%%       :
Turn on ND63 diagnostic : F
Inst 3-D timeser. file  : paranox_ts.YYYYMMDD.bpch
Tracers to include      : 1
Frequency [min]         : 120
IMIN, IMAX of region    :  70  30
JMIN, JMAX of region    :  23  46
-------------------------------------------------------------------------------
%%% PROD & LOSS MENU %%%:
Turn on P/L (ND65) diag?: F
# of levels for ND65    : 47
Save O3 P/L (ND20)?     : F
Number of P/L families  : 4
1st chemical family     : PSO21: P1
2nd chemical family     : PSO22: P2
3rd chemical family     : PSO4: SO4     
4th chemical family     : PMSA: MSA     
------------------------+------------------------------------------------------
%%% BENCHMARK MENU %%%  :  
Save benchmark output?  : F
File w/ initial Ox      : Ox.mass.initial
File w/ final Ox        : Ox.mass.final
------------------------+------------------------------------------------------
%%% NESTED GRID MENU %%%:  
Save TPCORE BC's        : F
Input BCs at 2x2.5?     : F
Over North America?     : F
TPCORE NA BC directory  : BC_4x5_NA/
Over Europe?            : F
TPCORE EU BC directory  : BC_4x5_EU/
Over China?             : F
TPCORE CH BC directory  : BC_4x5_CH/
Over SE Asia region?    : F
TPCORE SE BC directory  : BC_4x5_SE/
Over Custom Region?     : F
TPCORE BC directory     : BC_4x5/
BC timestep [min]       : 180
LL box of BC region     :   9  26
UR box of BC region     :  29  41
I0_W, J0_W, I0_E, J0_E  :   3   3   3   3
------------------------+------------------------------------------------------
%%% UNIX CMDS MENU %%%  : 
Background symbol       : & 
Redirect symbol         :  >
Unix remove command     : rm -f
Unix pathname separator : /
Unix wildcard character : *
Unix unzip command      : gzip -dc
Zip file suffix         : .gz
------------------------+------------------------------------------------------
END OF FILE             :
------------------------+------------------------------------------------------
