GEOS-CHEM UNIT TEST SIMULATION: {MET}_2x25_UCX
------------------------+------------------------------------------------------
%%% SIMULATION MENU %%% :
Start YYYYMMDD, hhmmss  : {DATE1} {TIME1}
End   YYYYMMDD, hhmmss  : {DATE2} {TIME2}
Run directory           : ./
Input restart file      : GEOSChem_restart.YYYYMMDDhhmm.nc
Root data directory     : {DATA_ROOT}
 => GCAP    subdir      : AGRID/YYYY/MM/
 => GEOS-4  subdir      : GEOS_4_v4/YYYY/MM/
 => GEOS-5  subdir      : GEOS_5/YYYY/MM/
 => GEOS-FP subdir      : GEOS_FP/YYYY/MM/
 => MERRA   subdir      : MERRA/YYYY/MM/
 => MERRA2  subdir      : MERRA2/YYYY/MM/
Dir w/ 1x1 emissions etc: {DATA_ROOT}/GEOS_NATIVE/
Temporary directory     : ./
Unzip met fields?       : F
Wait for met fields?    : F
Use variable tropopause?: T
Global offsets I0, J0   : 0 0
------------------------+------------------------------------------------------
%%% ADVECTED SPECIES MENU %%%:
Type of simulation      : 3
Number of Advected Spec.: 98
Species Entries ------->: Name
Species #1              : NO
Species #2              : O3
Species #3              : PAN
Species #4              : CO
Species #5              : ALK4
Species #6              : ISOP
Species #7              : HNO3
Species #8              : H2O2
Species #9              : ACET
Species #10             : MEK
Species #11             : ALD2
Species #12             : RCHO
Species #13             : MVK
Species #14             : MACR
Species #15             : PMN
Species #16             : PPN
Species #17             : R4N2
Species #18             : PRPE
Species #19             : C3H8
Species #20             : CH2O
Species #21             : C2H6
Species #22             : N2O5
Species #23             : HNO4
Species #24             : MP
Species #25             : DMS
Species #26             : SO2
Species #27             : SO4
Species #28             : SO4s
Species #29             : MSA
Species #30             : NH3
Species #31             : NH4
Species #32             : NIT
Species #33             : NITs
Species #34             : BCPI
Species #35             : OCPI
Species #36             : BCPO
Species #37             : OCPO
Species #38             : DST1
Species #39             : DST2
Species #40             : DST3
Species #41             : DST4
Species #42             : SALA
Species #43             : SALC
Species #44             : Br2
Species #45             : Br
Species #46             : BrO
Species #47             : HOBr
Species #48             : HBr
Species #49             : BrNO2
Species #50             : BrNO3
Species #51             : CHBr3
Species #52             : CH2Br2
Species #53             : CH3Br
Species #54             : MPN
Species #55             : ISOPND
Species #56             : ISOPNB
Species #57             : MOBA
Species #58             : PROPNN
Species #59             : HAC
Species #60             : GLYC
Species #61             : MVKN
Species #62             : MACRN
Species #63             : RIP
Species #64             : IEPOX
Species #65             : MAP
Species #66             : NO2
Species #67             : NO3
Species #68             : HNO2
Species #69             : N2O
Species #70             : OCS
Species #71             : CH4
Species #72             : BrCl
Species #73             : HCl
Species #74             : CCl4
Species #75             : CH3Cl
Species #76             : CH3CCl3
Species #77             : CFC113
Species #78             : CFC114
Species #79             : CFC115
Species #80             : HCFC123
Species #81             : HCFC141b
Species #82             : HCFC142b
Species #83             : CFC11
Species #84             : CFC12
Species #85             : HCFC22
Species #86             : H1211
Species #87             : H1301
Species #88             : H2402
Species #89             : Cl
Species #90             : ClO
Species #91             : HOCl
Species #92             : ClNO3
Species #93             : ClNO2
Species #94             : ClOO
Species #95             : OClO
Species #96             : Cl2
Species #97             : Cl2O2
Species #98             : H2O
------------------------+------------------------------------------------------
%%% TRANSPORT MENU %%%  :
Turn on Transport       : T
 => Fill Negative Values: T
 => IORD, JORD, KORD    : 3  3  7
Transport Timestep [min]: 10
------------------------+------------------------------------------------------
%%% CONVECTION MENU %%% :
Turn on Cloud Conv?     : T
Turn on PBL Mixing?     : T
 => Use non-local PBL?  : T
Convect Timestep [min]  : 10
------------------------+------------------------------------------------------
%%% EMISSIONS MENU %%%  :
Turn on emissions?      : T
Emiss Timestep [min]    : 20
HEMCO Input file        : HEMCO_Config.rc
 => 1ppt MBL BRO Sim.?  : F
Switches for UCX        :---
 => Use CH4 emissions?  : F
 => Turn on surface BCs :---
    => CH4?             : T
    => OCS?             : T
    => CFCs?            : T
    => Cl species?      : T
    => Br species?      : F
    => N2O?             : T
 => Set initial glob MRs:---
    => strat. H2O?      : T
    => CH4?             : T
    => OCS?             : T
    => CFCs?            : T
    => Cl species?      : T
    => strat Bry (GCCM)?: T
    => Br species?      : F
    => strat. Br?       : F
    => strat. NOx/HNO3? : T
    => N2O?             : T
    => strat. SO4?      : T
 => CFC emission year   : 0
------------------------+------------------------------------------------------
%%% AEROSOL MENU %%%    :
Online SULFATE AEROSOLS : T
Online CRYST/AQ AEROSOLS: F
Online CARBON  AEROSOLS : T
 => Use Brown Carbon?   : F
Online 2dy ORG AEROSOLS : F
 => Semivolatile POA?   : F
Online DUST    AEROSOLS : T
 => Acidic uptake ?     : F
Online SEASALT AEROSOLS : T
 => SALA radius bin [um]: 0.01 0.5
 => SALC radius bin [um]: 0.5  8.0
 => MARINE ORG AEROSOLS : F
Online dicarb. chem.    : F
Settle strat. aerosols  : T
Online PSC AEROSOLS     : T
Allow homogeneous NAT?  : F
NAT supercooling req.(K): 3.0
Ice supersaturation req.: 1.2
Perform PSC het. chem.? : T
Calc. strat. aero. OD?  : T
------------------------+------------------------------------------------------
%%% DEPOSITION MENU %%% :
Turn on Dry Deposition? : T
Turn on Wet Deposition? : T
------------------------+------------------------------------------------------
%%% CHEMISTRY MENU %%%  :
Turn on Chemistry?      : T
Use linear. strat. chem?: T
 => Use Linoz for O3?   : T
Use UCX strat. chem?    : T
Online CH4 chemistry?   : T
Active strat. H2O?      : T
Chemistry Timestep [min]: 20
Online O3 for FAST-JX?  : T
Gamma HO2               : 0.2
------------------------+------------------------------------------------------
%%% RADIATION MENU %%%  :
AOD Wavelength (nm)     : 550
Turn on RRTMG?          : F
Calculate LW fluxes?    : F
Calculate SW fluxes?    : F
Clear-sky flux?         : F
All-sky flux?           : F
Radiation Timestep [min]: 180
Species fluxes          : 0 0 0 0 0 0 0 0 0 1 0
 ---[O3,ME,SU,NI,AM,BC,OA,SS,DU,PM,ST]
------------------------+------------------------------------------------------
%%% OUTPUT MENU %%%     : 123456789.123456789.123456789.1--1=ZERO+2=BPCH
Schedule output for JAN : 3000000000000000000000000000000
Schedule output for FEB : 30000000000000000000000000000
Schedule output for MAR : 3000000000000000000000000000000
Schedule output for APR : 300000000000000000000000000000
Schedule output for MAY : 3000000000000000000000000000000
Schedule output for JUN : 300000000000000000000000000000
Schedule output for JUL : 3000000000000000000000000000000
Schedule output for AUG : 3000000000000000000000000000000
Schedule output for SEP : 300000000000000000000000000000
Schedule output for OCT : 3000000000000000000000000000000
Schedule output for NOV : 300000000000000000000000000000
Schedule output for DEC : 3000000000000000000000000000000
------------------------+------------------------------------------------------
%%% GAMAP MENU %%%      :
diaginfo.dat path       : diaginfo.dat
tracerinfo.dat path     : tracerinfo.dat
------------------------+------------------------------------------------------
%%% DIAGNOSTIC MENU %%% :
Binary punch file name  : trac_avg.{MET}_2x25_UCX.YYYYMMDDhhmm
Diagnostic Entries ---> :  L   Tracers to print out for each diagnostic
ND01: Rn/Pb/Be source   :  0   all
ND02: Rn/Pb/Be decay    :  0   all
ND03: Hg emissions, P/L :  0   all
ND04: CO2 Sources       :  0   all
ND05: Sulfate prod/loss : 72   all
ND06: Dust aer source   :  1   all
ND07: Carbon aer source : 72   all
ND08: Seasalt aer source:  1   all
ND09: -                 :  0   all
ND10: -                 :  0   all
ND11: Acetone sources   :  1   all
ND12: BL fraction       :  0   all
ND13: Sulfur sources    : 72   all
ND14: Cld conv mass flx :  0   all
ND15: BL mix mass flx   :  0   all
ND16: LS/Conv prec frac :  0   all
ND17: Rainout fraction  :  0   all
ND18: Washout fraction  :  0   all
ND19: CH4 loss          :  0   all
ND21: Optical depths    : 72   all
ND22: J-Values          : 72   1 2 7 8 9 11 13 14 20 44 46 47 49 50 51 59 60 66 67 69 74 75 83 84 -1
      => JV time range  :      11 13
ND24: E/W transpt flx   :  0   all
ND25: N/S transpt flx   :  0   all
ND26: U/D transpt flx   :  0   all
ND27: Strat NOx,Ox,HNO3 :  0   1 2 7
ND28: Biomass emissions :  1   1 4 5 9 10 11 18 19 20 21 26 30 34 35 71
ND29: CO sources        :  1   all
ND30: Land Map          :  0   all
ND31: Pressure edges    : 73   all
ND32: NOx sources       :  1   all
ND33: Column tracer     :  0   all
ND34: Biofuel emissions :  1   1 4 5 9 10 11 18 19 20 21
ND35: Tracers at 500 mb :  0   all
ND36: Anthro emissions  :  1   1 2 4 5 7 9 10 11 18 19 20 21 71
ND37: Updraft scav frac :  0   all
ND38: Cld Conv scav loss: 72   all
ND39: Wetdep scav loss  : 72   all
ND41: Afternoon PBL ht  :  0   all
ND42: SOA concentrations:  0   all
ND43: Chem prod OH, HO2 : 72   all
  ==> OH/HO2 time range :       0 24
ND44: Drydep flx/vel    :  1   2 3 7 8 9 11 13 14 15 16 17 20 22 26 27 28 29 30 31 32 33 34 35 36 37 38 39 40 41 42 43 44 47 48 50 55 56 58 59 60 61 62 63 64 65 66
ND45: Tracer Conc's     : 72   all
  ==> ND45 Time range   :       0 24
ND46: Biogenic emissions:  1   all
ND47: 24-h avg trc conc :  0   all
ND52: GAMMA HO2         :  0   all
ND53: POPs Emissions    :  0   all
ND54: Time in t'sphere  :  0   all
ND55: Tropopause height :  0   all
ND56: Lightning flashes :  0   all
ND57: Potential T       :  0   all
ND58: CH4 Emissions     :  0   all
ND59: TOMAS aerosol emis:  0   all
ND60: Wetland Frac      :  0   all
ND61: TOMAS 3D rate     :  0   all
ND62: Inst column maps  :  0   all
ND64: Radiative flux    : 73   all
ND66: DAO 3-D fields    :  0   all
ND67: DAO 2-D fields    :  0   all
ND68: Airmass/Boxheight :  0   all
ND69: Surface area      :  0   all
ND70: Debug output      :  0   all
ND71: Hourly max ppbv   :  0   2
ND72: Radiative output  :  0   all
------------------------+------------------------------------------------------
%%% PLANEFLIGHT MENU %%%:
Turn on plane flt diag? : F
Flight track info file  : Planeflight.dat.YYYYMMDD
Output file name        : plane.log.YYYYMMDD
------------------------+------------------------------------------------------
%%% ND48 MENU %%%       :
Turn on ND48 stations   : F
Station Timeseries file : stations.YYYYMMDD
Frequency [min]         :  60
Number of stations      :   1
Station #1 (I,J,Lmax,N) : 133 29 15 2
------------------------+------------------------------------------------------
%%% ND49 MENU %%%       :
Turn on ND49 diagnostic : F
Inst 3-D timeser. file  : tsYYYYMMDD.bpch
Tracers to include      : 94
Frequency [min]         : 120
IMIN, IMAX of region    :  70  30
JMIN, JMAX of region    :  23  46
LMIN, LMAX of region    :   1   1
-------------------------------------------------------------------------------
%%% ND50 MENU %%%       :
Turn on ND50 diagnostic : F
24-hr avg timeser. file : ts_24h_avg.YYYYMMDD.bpch
Output as HDF5?         : F
Tracers to include      : 82 83 84 85 86 87
IMIN, IMAX of region    :   1  72
JMIN, JMAX of region    :   1  46
LMIN, LMAX of region    :   1   1
-------------------------------------------------------------------------------
%%% ND51 MENU %%%       :
Turn on ND51 diagnostic : F
LT avg timeseries file  : ts_satellite.YYYYMMDD.bpch
Output as HDF5?         : F
Tracers to include      : 82 83 84 85 86 87
GMT Hour for disk write :   0
Avg Period [LT hours]   :  10  12
IMIN, IMAX of region    :   1 151
JMIN, JMAX of region    :   1 121
LMIN, LMAX of region    :   1  40
-------------------------------------------------------------------------------
%%% ND51b MENU %%%      :
Turn on ND51b diagnstic : F
LT avg timeseries file  : ts_13_15.NA.YYYYMMDD.h5
Output as HDF5?         : F
Tracers to include      : 1 4 20 25 26 27 28 29 30 31 32 33 34 35 36 37 38 39 40 41 42 43 44 45 46 47 48 49 50 51 52 53 54 60 61 62 63 64 65 66 72 73 75 82 83 84 85 86 87 93 94 98 99
GMT Hour for disk write :  1
Avg Period [LT hours]   :  13  15
IMIN, IMAX of region    :   1  72
JMIN, JMAX of region    :   1  46
LMIN, LMAX of region    :   1   1
------------------------+------------------------------------------------------
%%% ND63 MENU %%%       :
Turn on ND63 diagnostic : F
Inst 3-D timeser. file  : paranox_ts.YYYYMMDD.bpch
Tracers to include      : 1
Frequency [min]         : 120
IMIN, IMAX of region    :  70  30
JMIN, JMAX of region    :  23  46
-------------------------------------------------------------------------------
%%% PROD & LOSS MENU %%%:
Turn on P/L (ND65) diag?: T
# of levels for ND65    : 72
Save O3 P/L (ND20)?     : F
------------------------+------------------------------------------------------
%%% BENCHMARK MENU %%%  :
Save benchmark output?  : F
File w/ initial Ox      : Ox.mass.initial
File w/ final Ox        : Ox.mass.final
------------------------+------------------------------------------------------
%%% NESTED GRID MENU %%%:
Save TPCORE BC's        : F
Input BCs at 2x2.5?     : F
Over North America?     : F
TPCORE NA BC directory  : BC_2x25_NA/
Over Europe?            : F
TPCORE EU BC directory  : BC_2x25_EU/
Over China?             : F
TPCORE CH BC directory  : BC_2x25_CH/
Over Asia?              : F
TPCORE AS BC directory  : BC_2x25_AS/
Over Custom Region?     : F
TPCORE BC directory     : BC_2x25/
BC timestep [min]       : 180
LL box of BC region     :   9  26
UR box of BC region     :  29  41
I0_W, J0_W, I0_E, J0_E  :   3   3   3   3
------------------------+------------------------------------------------------
%%% UNIX CMDS MENU %%%  :
Background symbol       : &
Redirect symbol         :  >
Unix remove command     : rm -f
Unix pathname separator : /
Unix wildcard character : *
Unix unzip command      : gzip -dc
Zip file suffix         : .gz
------------------------+------------------------------------------------------
END OF FILE             :
------------------------+------------------------------------------------------
