This directory is for storage of emission ratio plots generated during
a benchmark simulation for GEOS-FP met fields on a 4x5 grid.

21 July 2015
GEOS-Chem Support Team
geos-chem-support@as.harvard.edu