#------------------------------------------------------------------------------
#                  GEOS-Chem Global Chemical Transport Model                  !
#------------------------------------------------------------------------------
#BOP
#
# !DESCRIPTION: Input file that specifies configuration for creating and
#  copying a run directory from the UnitTester. 
#\\
#\\
# !REMARKS:  
#  Customize the run directory for your system by specifying these values:
#  -------------------------------------------------------------------
#  VERSION     : A tag used to identify this Unit Test (e.g. v10-01h)
#  DESCRIPTION : A short description of this file's run dir copy configuration
#  COPY_PATH   : Local path where run directory will be copied to
#  DATA_ROOT   : Root GEOS-Chem data directory
#  HEMCO_ROOT  : Root directory where HEMCO emissions data files are stored
#  RUN_ROOT    : Unit test run directories are subdirectories of RUN_ROOT
#  RUN_DIR     : Individual unit test run directory path
#  PERL_DIR    : Unit Test perl script directory (i.e. this directory)
#  COPY_CMD    : Unix copy command with optional tags
#
# !REVISION HISTORY: 
#  18 Mar 2015 - R. Yantosca - Initial version
#  19 Mar 2015 - E. Lundgren - Simplify content for only copying run dirs
#EOP
#------------------------------------------------------------------------------
#
# !INPUTS:
#
   VERSION     : v10-01h
   DESCRIPTION : Create run directory from UnitTest
   COPY_PATH   : /home/{USER}/GC/rundirs
   DATA_ROOT   : /as/data/geos/ExtData
   HEMCO_ROOT  : {DATAROOT}/HEMCO
   RUN_ROOT    : /home/{USER}/UT/runs
   RUN_DIR     : {RUNROOT}/{RUNDIR}
   PERL_DIR    : /home/{USER}/UT/perl
   COPY_CMD    : cp -rfL
#
# !RUNS:
#  Specify the debugging runs that you want to perform below.
#  You can deactivate runs by commenting them out with "#".
#
#--------|-----------|------|------------|------------|------------|---------|
# MET    | GRID      | NEST | SIMULATION | START DATE | END DATE   | EXTRA?  |
#--------|-----------|------|------------|------------|------------|---------|
  geosfp   2x25        -      Hg           2013070100   2013070101   -
# geos5    2x25        -      Hg           2005070100   2005070101   -
# geosfp   4x5         -      fullchem     2013070100   2013070101   -
# geos4    4x5         -      Hg           2005070100   2005070101   -
# geos4    4x5         -      CH4          2005070100   2005070101   -
# geosfp   4x5         -      Hg           2013070100   2013070101   -
# geosfp   4x5         -      POPs         2013070100   2013070101   -
!END OF RUNS:
#EOP
#------------------------------------------------------------------------------