#------------------------------------------------------------------------------
#                  GEOS-Chem Global Chemical Transport Model                  !
#------------------------------------------------------------------------------
#BOP
#
# !DESCRIPTION: Input file that specifies configuration for creating and
#  copying a run directory from the UnitTester. 
#\\
#\\
# !REMARKS:  
#  Customize the run directory for your system by specifying these values:
#  -------------------------------------------------------------------
#  VERSION     : A tag used to identify this Unit Test (e.g. v10-01h)
#  DESCRIPTION : A short description of this file's run dir copy configuration
#  COPY_PATH   : Local path where run directory will be copied to
#  DATA_ROOT   : Root GEOS-Chem data directory
#  HEMCO_ROOT  : Root directory where HEMCO emissions data files are stored
#  RUN_ROOT    : Unit test run directories are subdirectories of RUN_ROOT
#  RUN_DIR     : Individual unit test run directory path
#  PERL_DIR    : Unit Test perl script directory (i.e. this directory)
#  COPY_CMD    : Unix copy command with optional tags
#
# !REVISION HISTORY: 
#  18 Mar 2015 - R. Yantosca - Initial version
#  19 Mar 2015 - E. Lundgren - Simplify content for only copying run dirs
#  19 May 2015 - R. Yantosca - Now can specify VERBOSE and WARNINGS options
#EOP
#------------------------------------------------------------------------------
#
# !INPUTS:
#
   VERSION     : v11-01
   DESCRIPTION : Create run directory from UnitTest
   COPY_PATH   : {HOME}/GC/rundirs
   DATA_ROOT   : /net/seasasfs01/srv/export/seasasfs01/share_root/gcgrid/data/ExtData
   HEMCO_ROOT  : {DATAROOT}/HEMCO
   RUN_ROOT    : {HOME}/UT/runs
   RUN_DIR     : {RUNROOT}/{RUNDIR}
   PERL_DIR    : {HOME}/UT/perl
   COPY_CMD    : cp -rfL
   VERBOSE     : 0
   WARNINGS    : 1
#
# !RUNS:
#  Specify the runs directories that you want to copy below.
#  Here we provide a few examples, but you may copy additional entries from
#  UnitTest.input and modify the dates as needed. You can deactivate copying
#  run certain directories by commenting them out with "#".
#
#--------|-----------|------|------------|------------|------------|---------|
# MET    | GRID      | NEST | SIMULATION | START DATE | END DATE   | EXTRA?  |
#--------|-----------|------|------------|------------|------------|---------|
  geosfp   4x5         -      benchmark    2013070100   2013080100   -
  geosfp   4x5         -      tropchem     2013070100   2013070101   -
  geosfp   4x5         -      soa          2013070100   2013070101   -
  geosfp   4x5         -      soa_svpoa    2013070100   2013070101   -
  geosfp   4x5         -      aciduptake   2013070100   2013070101   -
  geosfp   4x5         -      UCX          2013070100   2013070101   -
  geosfp   4x5         -      RRTMG        2013070100   2013070101   -
  geosfp   4x5         -      RnPbBe       2013070100   2013070101   -
  geosfp   4x5         -      Hg           2013010100   2013010101   -
  geosfp   4x5         -      POPs         2013070100   2013070101   -
  geosfp   4x5         -      CH4          2013070100   2013070101   -
  geosfp   4x5         -      tagO3        2013070100   2013070101   -
  geosfp   4x5         -      tagCO        2013070100   2013070101   -
  geosfp   2x25        -      CO2          2013070100   201307010030 -
  geosfp   4x5         -      aerosol      2013070100   2013070101   - 
  geosfp   025x03125   ch     tropchem     2013070100   201307010010 -
  geosfp   025x03125   na     tropchem     2013070100   201307010010 -
!END OF RUNS:
#EOP
#------------------------------------------------------------------------------