#------------------------------------------------------------------------------
#                  GEOS-Chem Global Chemical Transport Model                  !
#------------------------------------------------------------------------------
#BOP
#
# !DESCRIPTION: Input file that specifies configuration for creating a
#  DiffTest directory from the UnitTester. 
#\\
#\\
# !REMARKS:  
#  Customize the run directory for your system by specifying these values:
#  -------------------------------------------------------------------
#  VERSION     : Version of GEOS-Chem (optional)
#  DESCRIPTION : A short description of this file's DiffTest configuration
#  COPY_PATH   : Local path where DiffTest directory will be copied to
#  CODE_REF    : Local path where reference source code is stored (REF)
#  CODE_DEV    : Local path where development source code is stored (DEV)
#  DATA_ROOT   : Root GEOS-Chem data directory
#  HEMCO_ROOT  : Root directory where HEMCO emissions data files are stored
#  RUN_ROOT    : Unit test run directories are subdirectories of RUN_ROOT
#  RUN_DIR     : Individual unit test run directory path
#  PERL_DIR    : Unit Test perl script directory (i.e. this directory)
#  COPY_CMD    : Unix copy command with optional tags
#
# !REVISION HISTORY: 
#  01 Oct 2015 - E. Lundgren - Initial version, based on CopyRunDirs.input
#EOP
#------------------------------------------------------------------------------
#
# !INPUTS:
#
# %%% ID tags %%%
#
   VERSION        : v11-01
   DESCRIPTION    : Create run directory from UnitTest
#
# %%% Data path and HEMCO settings %%%
#
   DATA_ROOT      : /n/holylfs/EXTERNAL_REPOS/GEOS-CHEM/gcgrid/data/ExtData
   HEMCO_ROOT     : {DATAROOT}/HEMCO
   VERBOSE        : 0
   WARNINGS       : 1
#
# %%% Unit tester path names %%%
#
   UNIT_TEST_ROOT : {HOME}/UT
   RUN_ROOT       : {UTROOT}/runs
   RUN_DIR        : {RUNROOT}/{RUNDIR}
   PERL_DIR       : {UTROOT}/perl
#
# %%% Reference (Ref) and Development (Dev) codes %%%
#
   CODE_REF       : {HOME}/GC/Code.Ref
   CODE_DEV       : {HOME}/GC/Code.Dev
#
# %%% Target directory and copy command %%%
#
   COPY_PATH      : {HOME}/GC/DiffTest/v11-01
   COPY_CMD       : cp -rfL
#
# !RUNS:
#  Specify the runs directories that you want to make DiffTests out of.
#  Here we provide a few examples, but you may copy additional entries from
#  UnitTest.input and modify the dates as needed. You can deactivate
#  certain directories by commenting them out with "#".
#
#--------|-----------|------|------------|------------|------------|---------|
# MET    | GRID      | NEST | SIMULATION | START DATE | END DATE   | EXTRA?  |
#--------|-----------|------|------------|------------|------------|---------|
  geosfp   4x5         -      benchmark    2013070100   2013070106   -
  geosfp   4x5         -      tropchem     2013070100   2013070106   -
  geosfp   4x5         -      soa          2013070100   2013070106   -
  geosfp   4x5         -      soa_svpoa    2013070100   2013070106   -
  geosfp   4x5         -      aciduptake   2013070100   2013070106   -
  geosfp   4x5         -      UCX          2013070100   2013070106   -
  geosfp   4x5         -      RRTMG        2013070100   2013070106   -
  geosfp   4x5         -      RnPbBe       2013070100   2013070106   -
  geosfp   4x5         -      Hg           2013010100   2013010106   -
  geosfp   4x5         -      POPs         2013070100   2013070106   -
  geosfp   4x5         -      TOMAS40      2013070100   2013070106   -
  geosfp   4x5         -      CH4          2013070100   2013070106   -
  geosfp   4x5         -      tagO3        2013070100   2013070106   -
#  geosfp   4x5         -      tagCO        2013070100   2013070106   -
  geosfp   2x25        -      CO2          2013070100   201307010600 -
  geosfp   4x5         -      aerosol      2013070100   2013070106   - 
#  geosfp   025x03125   ch     tropchem     2013070100   201307010010 -
#  geosfp   025x03125   na     tropchem     2013070100   201307010010 -
!END OF RUNS:
#EOP
#------------------------------------------------------------------------------