#------------------------------------------------------------------------------
#                  GEOS-Chem Global Chemical Transport Model                  !
#------------------------------------------------------------------------------
#BOP
#
# !DESCRIPTION: Input file that specifies configuration for creating a
#  DiffTest directory from the UnitTester. 
#\\
#\\
# !REMARKS:
#  For a complete description of how to customize the settings in the
#  INPUTS and RUNS sections, see the following wiki posts:
#
#   wiki.geos-chem.org/Creating_GEOS-Chem_run_directories#Section_1:_INPUTS
#   wiki.geos-chem.org/Creating_GEOS-Chem_run_directories#Section_2:_RUNS
#
# !REVISION HISTORY: 
#  01 Oct 2015 - E. Lundgren - Initial version, based on CopyRunDirs.input
#EOP
#------------------------------------------------------------------------------
#
# !INPUTS:
#
# %%% ID tags %%%
#
   VERSION        : v11-02
   DESCRIPTION    : Create run directory from UnitTest
#
# %%% Data path and HEMCO settings %%%
#
   DATA_ROOT      : /n/holylfs/EXTERNAL_REPOS/GEOS-CHEM/gcgrid/data/ExtData
   HEMCO_ROOT     : {DATAROOT}/HEMCO
   VERBOSE        : 0
   WARNINGS       : 1
#
# %%% Unit tester path names %%%
#
   UNIT_TEST_ROOT : {HOME}/UT
   RUN_ROOT       : {UTROOT}/runs
   RUN_DIR        : {RUNROOT}/{RUNDIR}
   PERL_DIR       : {UTROOT}/perl
#
# %%% Reference (Ref) and Development (Dev) codes %%%
#
   CODE_REF       : {HOME}/GC/Code.Ref
   CODE_DEV       : {HOME}/GC/Code.Dev
#
# %%% Target directory and copy command %%%
#
   COPY_PATH      : {HOME}/GC/DiffTest/v11-02
   COPY_CMD       : cp -rfL
#
# !RUNS:
#  Specify the runs directories that you want to make DiffTests out of.
#  Here we provide a few examples, but you may copy additional entries from
#  UnitTest.input and modify the dates as needed. You can deactivate
#  certain directories by commenting them out with "#".
#
#--------|-----------|------|------------|------------|------------|---------|
# MET    | GRID      | NEST | SIMULATION | START DATE | END DATE   | EXTRA?  |
#--------|-----------|------|------------|------------|------------|---------|
  geosfp   4x5         -      standard     2013070100   2013070101   -
#  geosfp   4x5         -      tropchem     2013070100   2013070101   -
#  geosfp   4x5         -      soa          2013070100   2013070101   -
#  geosfp   4x5         -      soa_svpoa    2013070100   2013070101   -
#  geosfp   4x5         -      aciduptake   2013070100   2013070101   -
#  geosfp   4x5         -      UCX          2013070100   2013070101   -
#  geosfp   4x5         -      RRTMG        2013070100   2013070101   -
#  geosfp   4x5         -      RnPbBe       2013070100   2013070101   -
#  geosfp   4x5         -      Hg           2013010100   2013010101   -
#  geosfp   4x5         -      POPs         2013070100   2013070101   -
#  geosfp   4x5         -      TOMAS40      2013070100   2013070101   -
#  geosfp   4x5         -      CH4          2013070100   2013070101   -
#  geosfp   4x5         -      tagO3        2013070100   2013070101   -
#  geosfp   4x5         -      tagCO        2013070100   2013070101   -
#  geosfp   2x25        -      CO2          2013070100   2013070101   -
#  geosfp   4x5         -      aerosol      2013070100   2013070101   - 
#  geosfp   025x03125   ch     tropchem     2013070100   201307010010 -
#  geosfp   025x03125   na     tropchem     2013070100   201307010010 -
!END OF RUNS:
#EOP
#------------------------------------------------------------------------------