#!/usr/bin/perl -w

#------------------------------------------------------------------------------
#                  GEOS-Chem Global Chemical Transport Model                  !
#------------------------------------------------------------------------------
#BOP
#
# !MODULE: gcCopyRunDirs
#
# !DESCRIPTION: This perl script is used to copy GEOS-Chem run directories
#  from various GEOS-Chem unit tester run directories.  This is a quick way 
#  to generate run directories for many types of GEOS-Chem simulations.
#\\
#\\
# !USES:
#
require 5.003;                       # Need this version of Perl or newer
use English;                         # Use English language
use Carp;                            # Get detailed error messages
use strict;
use Dates   qw( &getLocalTime   );   # Get routines from Dates.pm
use UtUtils qw( &baseName
                &checkDir
                &makeHemcoCfg
                &makeInputGeos
                &makeGCHPcfg
                &makeHistoryRc
                &parse          );
#
# !PUBLIC DATA MEMBERS:
#
our $COPY_CMD    = "";                # Command to copy directories
our $COPY_PATH   = "";                # Path to copy Run directories to
our $UT_ROOT     = "";                # Root path for the unit tester
our $GCGRID_ROOT = "";                # Root path for GEOS-Chem data directory
our $DATA_ROOT   = "";                # Root path for ExtData data directory
our $DESCRIBE    = "";                # Short description of unit tests
our $JOB_DIR     = "";                # Unit Test job directory
our $LOG_DIR     = "";                # Unit Test logs directory
our $RUN_ROOT    = "";                # Unit Test top-level run directory
our $RUN_DIR     = "";                # Unit Test run directory subdirectory
our $WEB_GRID    = "";                # Web page w/ unit text matrix
our $WEB_PUSH    = "";                # Remote server for web page push
our $VERSION     = "";                # GEOS-Chem version ID
our $VERBOSE     = "0";               # Verbose setting (0-3)
our $WARNINGS    = "1";               # Warnings setting (0-3) 

#		
# !PUBLIC MEMBER FUNCTIONS:
#  &main()     : Driver routine for gcCopyRunDirs
#
# !PRIVATE MEMBER FUNCTIONS:
#  &getRunDir  : Returns the name of the GEOS-Chem run directory
#  &makeInputs : Creates the input.geos file in the run directory 
#  &makeInputs : Creates the runConfig.sh file for GCHP run directory
#  &doCopyDirs : Reads user options from a file and starts the copy process
#
# !CALLING SEQUENCE:
#  gcCopyRunDirs [ OPTIONS-FILENAME ] [ DRYRUN ]
#
# !REMARKS:
#  If no value is passed for OPTIONS-FILENAME, then gcCopyRunDirs will
#  read user options from the input file: "UnitTest.input".
#
# !REVISION HISTORY: 
#  06 Mar 2015 - R. Yantosca - Initial version, based on gcUnitTest
#  19 May 2015 - R. Yantosca - Now add VERBOSE and WARNINGS global variables
#  18 Dec 2015 - R. Yantosca - Add $UT_ROOT global variable   
#  30 Aug 2018 - M. Sulprizio- Remove $HEMCO_ROOT; Now pass $DATA_ROOT to
#                              makeHemcoCfg instead
#EOP
#------------------------------------------------------------------------------
#                  GEOS-Chem Global Chemical Transport Model                  !
#------------------------------------------------------------------------------
#BOP
#
# !IROUTINE: getRunDir
#
# !DESCRIPTION: Returns the run directory name for a given combination
#  of met field, grid, simulation type, and nested-grid type.
#\\
#\\
# !INTERFACE:
#
sub getRunDir($$$$) {
#
# !INPUT PARAMETERS:
#
  # $met  : Met field type
  # $grid : Horiziontal grid
  # $nest : Nested grid option (if necessary)
  # $sim  : Simulation type
  my ( $met, $grid, $nest, $sim ) = @_;
#
# !RETURN VALUE:
#
  my $runDir = ""; 
#
# !CALLING SEQUENCE:
#  &doUnitTest( "UnitTest.input" );
#
# !REVISION HISTORY:
#  06 Mar 2015 - R. Yantosca - Initial version, based on gcUnitTest
#  13 Jul 2016 - M. Sulprizio- Modify runLoc for consolidated run directories
#  16 Aug 2017 - E. Lundgren - Change GCHP rundir to be grid-independent
#EOP
#------------------------------------------------------------------------------
#BOC
#
# !LOCAL VARIABLES:
#
  # Run directory string
  my $runLoc = "";

  if ( ( $met =~ m/gchp/ ) > 0 ) {
    $runLoc = "{MET}_{SIM}";
  } elsif ( length( $nest ) > 0 ) {
    $runLoc = "{MET}_{GRID}_{SIM}_{NEST}";
  } elsif ( $sim =~ m/gc_timing/) {
    $runLoc = "{SIM}";
  } else {
    $runLoc = "{GRID}_{SIM}";
  }

  # Replace tokens
  $runLoc =~ s/{MET}/$met/g;
  $runLoc =~ s/{GRID}/$grid/g;
  $runLoc =~ s/{SIM}/$sim/g;
  $runLoc =~ s/{NEST}/$nest/g;
  $runDir = "$RUN_DIR";
  $runDir =~ s/{RUNDIR}/$runLoc/g;

  # Return the run directory
  return( $runDir );
}
#EOP
#------------------------------------------------------------------------------
#                  GEOS-Chem Global Chemical Transport Model                  !
#------------------------------------------------------------------------------
#BOP
#
# !IROUTINE: makeInputs
#
# !DESCRIPTION: Creates the input.geos file and HEMCO_Config.rc file from
#  It starts with a template file and then replaces some tokens to customize
#  them for the given simulation.
#\\
#\\
# !INTERFACE:
#
sub makeInputs($$$$$$$$) {
#
# !INPUT PARAMETERS:
#
  # $start  : Start date of test simulation (YYYYMMDDhh                )
  # $end    : End   date of test simulation (YYYYMMDDhh or YYYYMMDDhhmm)
  # $runDir : Run directory
  my ( $start, $end, $runDir, $met, $grid, $nest, $sim ) = @_;
#
# !CALLING SEQUENCE:
#  &makeInputFiles( $start, $end, $runDir );
#
# !REVISION HISTORY:
#  06 Mar 2015 - R. Yantosca - Initial version, based on gcUnitTest
#  19 May 2015 - R. Yantosca - Pass $VERBOSE, $WARNINGS to &makeHemcoCfg
#EOP
#------------------------------------------------------------------------------
#BOC
#
# !LOCAL VARIABLES:
#
  # Strings
  my $d0       = "";
  my $h0       = "";
  my $d1       = "";
  my $h1       = "";
  my $inpTmpl  = "$runDir/input.geos.template";
  my $inpGeos  = "$runDir/input.geos";
  my $runcTmpl = "$runDir/runConfig.template";
  my $runConf  = "$runDir/runConfig.sh";
  my $capTmpl  = "$runDir/CAP.template";
  my $capRc    = "$runDir/CAP.rc";
  my $gchpTmpl = "$runDir/GCHP.template";
  my $GCHPRc   = "$runDir/GCHP.rc";
  my $hcoTmpl  = "$runDir/HEMCO_Config.template";
  my $hcoCfg   = "$runDir/HEMCO_Config.rc";
  my $histTmpl = "$runDir/HISTORY.rc.template";
  my $histRc   = "$runDir/HISTORY.rc";
  my $errMsg   = "makeInputs: END must be YYYYMMDDhh or YYYYMMDDhhmm!";
  my $hcoEnd   = ""; 

  # Get start date and hour
  $d0          = substr( $start, 0, 8 );
  $h0          = substr( $start, 8, 2 );
  $h0         .= "0000";

  # Get end date and hour
  $d1          = substr( $end,   0, 8 );

  # Compute the ending hour (hhmmss) from the ending string, 
  # which may be in either YYYYMMDDhhmm or YYYYMMDDhh format
  if    ( length( $end ) == 12 ) { $h1 = substr( $end, 8, 4 ) . "00";   } 
  elsif ( length( $end ) == 10 ) { $h1 = substr( $end, 8, 2 ) . "0000"; }
  else                           { print "$errMsg\n"; exit(1);          }

  # Make the input.geos file in the run directory
  &makeInputGeos( $d0, $h0, $d1, $h1, $met, $DATA_ROOT, $inpTmpl, $inpGeos );

  # Make the runConfig.sh and CAP.rc files for GCHP run directories
  if ( $met =~ m/gchp/ ) {
    &makeGCHPcfg( $d0, $h0, $d1, $h1, $sim, $runcTmpl, $runConf );
    &makeGCHPcfg( $d0, $h0, $d1, $h1, $sim, $capTmpl, $capRc );
    &makeGCHPcfg( $d0, $h0, $d1, $h1, $sim, $gchpTmpl, $GCHPRc );
  }

  # Make the HEMCO_Config.rc file in the run directory
  &makeHemcoCfg( $hcoTmpl, $start,   $met,      $grid,       $nest,    
                 $sim,     $VERBOSE, $WARNINGS, $DATA_ROOT,  $hcoCfg );

  # Make the HISTORY.rc file in the run directory
  if ( -f $histTmpl ) {
    &makeHistoryRc( $histTmpl, $d0, $h0, $d1, $h1, $histRc ); 
  }
    
  # Return 
  return( $? );
}
#EOP
#------------------------------------------------------------------------------
#                  GEOS-Chem Global Chemical Transport Model                  !
#------------------------------------------------------------------------------
#BOP
#
# !IROUTINE: doCopyDirs
#
# !DESCRIPTION: Reads the input file name (containing user-specified options)
#  file and copies the selected run directories to the path specified by
#  $COPY_PATH.  Generates the input.geos and HEMCO_Config.rc files appropriate
#  to each run directory.
#\\
#\\
# !INTERFACE:
#
sub doCopyDirs($$) {
#
# !INPUT PARAMETERS:
#
  # $fileName : File in which unit test options are listed
  # $dryRun   : If =1, will set up input files, but not copy files
  my ( $fileName, $dryRun ) = @_;
#
# !CALLING SEQUENCE:
#  &doUnitTest( $fileName );
#
# !REVISION HISTORY:
#  22 Aug 2013 - R. Yantosca - Initial version, based on gcUnitTest
#  13 Mar 2015 - M. Sulprizio- Now get username for file paths
#  19 Mar 2015 - R. Yantosca - Now delete template files in the copied rundir
#  03 Apr 2015 - E. Lundgren - Modifications to use UT/perl/Makefile and
#                              UT/perl/getRunInfo for all unit test and
#                              copied run directories.
#  14 Apr 2015 - R. Yantosca - Also copy the perl/validate script to the 
#                              copied run directories.
#  19 May 2015 - R. Yantosca - Now look for VERBOSE, WARNINGS in input file
#  09 Jun 2015 - E. Lundgren - Now copy HEMCO restart file as read-only to
#                              avoid deletion when calling make dataclean
#  18 Jun 2015 - M. Sulprizio- Now use home directory for file paths
#  18 Jun 2015 - R. Yantosca - Use mkdir -p instead of mkdirhier
#  18 Dec 2015 - R. Yantosca - Now get root path of unit tester in $UT_ROOT
#  18 Dec 2015 - R. Yantosca - Replace ~ in $COPY_PATH with home directory
#  13 Jul 2016 - M. Sulprizio- Update copyDir to always use $met\_$grid\_$sim
#  23 Aug 2016 - R. Yantosca - Bug fix: Replace {HOME} in $HEMCO_ROOT
#  12 Apr 2017 - R. Yantosca - Now replace {VERSION} in $COPY_PATH variable
#  03 May 2017 - R. Yantosca - Bug fix: Strip spaces in directory paths
#EOP
#------------------------------------------------------------------------------
#BOC
#
# !LOCAL VARIABLES:
#
  # Scalar
  my $cmd     = "";
  my $copyDir = "";
  my $end     = "";
  my $extra   = "";
  my $grid    = "";
  my $met     = "";
  my $nest    = "";
  my $notDir  = "";
  my $runDir  = "";
  my $sim     = "";
  my $start   = "";
  my $home    = "";
  my $user    = "";
  my $res     = "";
  my $rstRoot = "";
  my $rstFile = "";
  my $rstPref = "";
  my $rstName = "";
  my $hcoTmpl = "";
  my $hcoCfg  = "";
  my $hsaTmpl = "";
  my $hsaCfg  = "";

  # Arrays
  my @txt         = ();
  my @resolutions = ();

  #---------------------------------------------------------------------------
  # Read options from the input file
  #---------------------------------------------------------------------------
  
  # Read entire file into an array and remove newlines
  open( I, "<$fileName" ) or die "Cannot open $fileName!\n";
  chomp( @txt = <I> );
  close( I );

  # Get home directory
  $home = $ENV{"HOME"};

  # Get username
  $user = $ENV{"USER"};

  # Loop thru each line in the file; parse information into global variables
  for ( my $i = 0; $i < scalar( @txt ); $i++ ) {

    # Skip if the line only has whitespace
    while ( $txt[$i] =~ /^\s*$/ ) { $i++ };

    #------------------------------------------------------------------------
    # Get values for global options (these precede the list of simulations)
    # Skip over lines beginning with the # comment character
    #
    # PLEASE NOTE THAT THE FOLLOWING ORDER MUST BE OBSERVED:
    # (1) VERSION   has to be listed last of all
    # (2) GCGRID_ROOT has to be listed before DATA_ROOT
    # (3) DATA_ROOT has to be listed before HEMCO_ROOT
    # (4) UNIT_TEST_ROOT has to be listed befor all other unit test dirs
    #------------------------------------------------------------------------
    if ( !( $txt[$i] =~ m/\#/ ) ) { 
      if    ( $txt[$i] =~ "GCGRID_ROOT" ) { $GCGRID_ROOT=&parse( $txt[$i] ); } 
      elsif ( $txt[$i] =~ "DATA_ROOT"   ) { $DATA_ROOT = &parse( $txt[$i] ); } 
      elsif ( $txt[$i] =~ "UNIT_TEST_ROOT") { $UT_ROOT = &parse( $txt[$i] ); } 
      elsif ( $txt[$i] =~ "JOB_DIR"     ) { $JOB_DIR   = &parse( $txt[$i] ); }
      elsif ( $txt[$i] =~ "LOG_DIR"     ) { $LOG_DIR   = &parse( $txt[$i] ); }
      elsif ( $txt[$i] =~ "RUN_ROOT"    ) { $RUN_ROOT  = &parse( $txt[$i] ); } 
      elsif ( $txt[$i] =~ "RUN_DIR"     ) { $RUN_DIR   = &parse( $txt[$i] ); }
      elsif ( $txt[$i] =~ "WEB_GRID"    ) { $WEB_GRID  = &parse( $txt[$i] ); }
      elsif ( $txt[$i] =~ "WEB_PUSH"    ) { $WEB_PUSH  = &parse( $txt[$i] ); }
      elsif ( $txt[$i] =~ "COPY_CMD"    ) { $COPY_CMD  = &parse( $txt[$i] ); }
      elsif ( $txt[$i] =~ "COPY_PATH"   ) { $COPY_PATH = &parse( $txt[$i] ); }
      elsif ( $txt[$i] =~ "VERBOSE"     ) { $VERBOSE   = &parse( $txt[$i] ); }
      elsif ( $txt[$i] =~ "WARNINGS"    ) { $WARNINGS  = &parse( $txt[$i] ); }
      elsif ( $txt[$i] =~ "DESCRIPTION" ) { $DESCRIBE  = &parse( $txt[$i] ); }
      elsif ( $txt[$i] =~ "VERSION"     ) { $VERSION   = &parse( $txt[$i] ); }
    }

    #------------------------------------------------------------------------
    # Get information about requested run directories
    #------------------------------------------------------------------------
    elsif ( $txt[$i] =~ "!RUNS"     ) {

      # Strip spaces from directory paths
      $COPY_PATH  =~ s/ //g;
      $GCGRID_ROOT=~ s/ //g;
      $DATA_ROOT  =~ s/ //g;
      $RUN_ROOT   =~ s/ //g; 
      $UT_ROOT    =~ s/ //g;

      # Replace tokens in a few more variables
      $UT_ROOT    =~ s/{HOME}/$home/g;
      $COPY_PATH  =~ s/{HOME}/$home/g;
      $COPY_PATH  =~ s/\~/$home/g;
      $COPY_PATH  =~ s/{VERSION}/$VERSION/g;
      $RUN_ROOT   =~ s/{HOME}/$home/g;
      $RUN_ROOT   =~ s/{UTROOT}/$UT_ROOT/g;
      $JOB_DIR    =~ s/{HOME}/$home/g;
      $JOB_DIR    =~ s/{UTROOT}/$UT_ROOT/g;
      $LOG_DIR    =~ s/{HOME}/$home/g;
      $LOG_DIR    =~ s/{UTROOT}/$UT_ROOT/g;
      $LOG_DIR    =~ s/{VERSION}/$VERSION/g;
      $DATA_ROOT  =~ s/{HOME}/$home/g;
      $DATA_ROOT  =~ s/{GCGRIDROOT}/$GCGRID_ROOT/g;
      $RUN_DIR    =~ s/{RUNROOT}/$RUN_ROOT/g;
      $RUN_DIR    =~ s/{UTROOT}/$UT_ROOT/g;

      # Replace user token
      $UT_ROOT    =~ s/{USER}/$user/g;
      $COPY_PATH  =~ s/{USER}/$user/g;
      $RUN_ROOT   =~ s/{USER}/$user/g;
      $JOB_DIR    =~ s/{USER}/$user/g;
      $LOG_DIR    =~ s/{USER}/$user/g;
      
      # Make sure each of these directories exist before proceeding
      &checkDir( $GCGRID_ROOT );
      &checkDir( $DATA_ROOT   );

       # Splash page
      print '%%%%%%%%% GEOS-Chem COPY RUN DIRECTORIES %%%%%%%%%%%%%%%%%%%%%'."\n"; # 
      print "\%\%\% Version ID  : $VERSION\n";
      print "\%\%\% Description : $DESCRIBE\n";
      print "\%\%\%\n";

      # Create $COPY_PATH if it doesn't exist
      if ( !( -d $COPY_PATH ) ) { 
	print "\%\%\% Creating $COPY_PATH\n";
        qx( mkdir -p $COPY_PATH ); 

      }

      # Skip over comment lines
      while ( $txt[$i] =~ m/^\#/ ) { $i++ }

      # Loop over all requested simulations
      while ( !($txt[$i] =~ m/END/ ) ) { 

        # Skip if the line only has whitespace
	while ( $txt[$i] =~ /^\s*$/ ) { $i++; }
     
	# Skip lines beginning with comments
	if ( !( $txt[$i] =~ m/^\#/ ) ) {

	  #-----------------------------------------------------------------
	  # Parse each line that specifies an individual unit test.
	  # Remove extraneous characters wherever necessary.
	  #-----------------------------------------------------------------

	  # Parse each line into values
	  ( $met,   $grid, $nest, $sim, 
	    $start, $end,  $extra       ) = split( ' ', $txt[$i] );

	  # Make sure met, grid, nest are in lowercase
	  $met     =~ tr/[A-Z]/[a-z]/;
	  $grid    =~ tr/[A-Z]/[a-z]/;
	  $nest    =~ tr/[A-Z]/[a-z]/;

	  # Remove extraneous characters from $met
	  $met     =~ s/\-//g;
	  $met     =~ s/\_//g;
	  $met     =~ s/\=//g;
	  $met     =~ s/\.//g;

	  # Remove extraneous characters from $nest
	  $nest    =~ s/\-//g;
	  $nest    =~ s/\_//g;
	  $nest    =~ s/\.//g;

	  # Remove extraneous characters from $extra
	  $extra   =~ s/\-//g;
	  $extra   =~ s/\_//g;
	  $extra   =~ s/\.//g;

	  # Define the run directory name
	  $runDir   = &getRunDir( $met, $grid, $nest, $sim );
	  &checkDir( $runDir );

	  # Get the directory name minus the full path
	  $notDir   = &baseName( $runDir );

	  # Directory in the remote location
	  if ( $met eq "gchp" ) {
	    $copyDir = "$COPY_PATH/$met\_$sim";
	  } else {
	    $copyDir = "$COPY_PATH/$met\_$grid\_$sim";
	  }

	  # Append nested grid string if necessary
	  if ( length( $nest ) > 0 ) { $copyDir .= "_$nest"; }
  
	  #-----------------------------------------------------------------
	  # Create the input.geos and HEMCO_Config.rc files from templates 
	  # in the run directory for each requested unit test.  This has
	  # to be done first, since the unit test commands will (likely)
	  # be executed from within a computational queue system.
	  #-----------------------------------------------------------------

	  # If $end is in YYYYMMDDhh format, then force it to be YYYYMMDDhhmm
	  if ( length( $end ) == 10 ) { $end .= "00"; }

	  # Splash page output
	  print "\%\%\% Copying $notDir to $copyDir\n";

	  # Error check, make sure that the $copyDir does not already exist
	  if ( -d $copyDir ) {
	    print "\%\%\% ERROR!  $copyDir already exists!\n";
	    print "\%\%\% Delete or move $copyDir before proceeding!\n";
            print '%%%%%%%%%%%%%%%%%%%%%%%%%%%%%%%%%%%%%%%%%%%%%%%%%%%%%%%%%%%%%%'."\n";
	    exit(1);
  	  }

	  # Copy command
	  $cmd = "$COPY_CMD $runDir $copyDir";

	  # Set path to restart files
	  $rstRoot = "$DATA_ROOT/SPC_RESTARTS/";
	  $rstPref = "initial_GEOSChem_rst.";

	  # Test if this is a dry run or not
	  if ( $dryRun ) { 
	    
	    #----------------------------------------
	    # DRY RUN: Only print the copy command
	    #----------------------------------------
	    print "\%\%\%  $cmd\n"; 

          } elsif ( $sim =~ m/HEMCO/) {

	    #----------------------------------------
	    # NOT DRY RUN: Copy the HEMCO directory
	    #----------------------------------------

	    # Execute the copy command
	    qx/$cmd/;

	    # Make the HEMCO_Config.rc file from template
	    $hcoTmpl = "$copyDir/HEMCO_Config.template";
	    $hcoCfg  = "$copyDir/HEMCO_Config.rc";
            &makeHemcoCfg( $hcoTmpl, $start,    $met, $grid, $nest, $sim,    
                           $VERBOSE, $WARNINGS, $DATA_ROOT,  $hcoCfg );

	    # Make the HEMCO_sa_Config.rc file from template
	    $hsaTmpl = "$copyDir/HEMCO_sa_Config.template";
	    $hsaCfg  = "$copyDir/HEMCO_sa_Config.rc";
            &makeHemcoCfg( $hsaTmpl, $start,    $met, $grid, $nest, $sim,    
                           $VERBOSE, $WARNINGS, $DATA_ROOT,  $hsaCfg );

	    # Remove the output files from the copied run dir
	    $cmd  = "rm -f $copyDir/HEMCO_Config.template";
	    $cmd .= " $copyDir/HEMCO_sa_Config.template";
	    $cmd .= " $copyDir/*.log";
	    $cmd .= " $copyDir/output/*.nc*";
	    qx/$cmd/;

            # Copy GEOS-Chem Classic Makefile to copied run directory
            $cmd = "cp ../runs/shared_inputs/Makefiles/Makefile $copyDir/Makefile";
            qx/$cmd/;

            # Copy UT/perl/getRunInfo to copied run directory
            $cmd = "cp ./getRunInfo $copyDir/getRunInfo"; 
            qx/$cmd/;

          } elsif ( $met =~ m/gchp/ ) {

	    #----------------------------------------
	    # Copy the directories for gchp
	    #----------------------------------------

	    # Execute the copy command
	    qx/$cmd/;

            # Copy GCHP Makefile to copied run directory
            $cmd = "cp ../runs/shared_inputs/Makefiles/Makefile_GCHP $copyDir/Makefile";
            qx/$cmd/;

	    # Make the input.geos, HEMCO_Config.rc, HISTORY.rc, CAP.rc, 
            # runConfig.sh, and GCHP.rc files from templates.
	    &makeInputs( $start, $end,  $copyDir, $met, $grid, $nest, $sim );

	    # Remove any output and template files that might be in the 
            # copied run dir
	    $cmd =  "rm -f ${copyDir}/input.geos.*";
	    $cmd .= " ${copyDir}/HEMCO_Config.template";
	    $cmd .= " ${copyDir}/runConfig.template";
	    $cmd .= " ${copyDir}/CAP.template";
	    $cmd .= " ${copyDir}/GCHP.template";
	    $cmd .= " ${copyDir}/OutputDir/GCHP.center.*";
	    $cmd .= " ${copyDir}/OutputDir/GCHP.regrid.*";
	    $cmd .= " ${copyDir}/trac_avg.*";
	    $cmd .= " ${copyDir}/tracerinfo.dat";
	    $cmd .= " ${copyDir}/diaginfo.dat";
	    $cmd .= " ${copyDir}/cap_restart";
	    $cmd .= " ${copyDir}/regrid.rcx";
	    $cmd .= " ${copyDir}/center.rcx";
	    $cmd .= " ${copyDir}/*~";
	    $cmd .= " ${copyDir}/HEMCO.log";
	    $cmd .= " ${copyDir}/PET*";
	    $cmd .= " ${copyDir}/logfile*";
	    $cmd .= " ${copyDir}/*.log";
	    $cmd .= " ${copyDir}/slurm-*";
	    $cmd .= " ${copyDir}/1";
	    $cmd .= " ${copyDir}/EGRESS";
	    $cmd .= " ${copyDir}/geos";
      	    qx/$cmd/;

	    # Rename HISTORY.rc.template to HISTORY.rc
	    $cmd = "mv ${copyDir}/HISTORY.rc.template ${copyDir}/HISTORY.rc";
	    qx/$cmd/;

	    # Set permissions for runConfig.sh
	    $cmd = "[ -f ${copyDir}/runConfig.sh ] && chmod 755 ${copyDir}/runConfig.sh";
	    qx/$cmd/;

	    # Make symbolic links to restart files at 4 resolutions
	    @resolutions = (24,48,90,180,360);
	    foreach my $res (@resolutions) {
	      if ( $sim =~ m/RnPbBe/ ) {
		$rstName = "${rstPref}c${res}_${sim}Pasv.nc";
	      } else {
		$rstName = "${rstPref}c${res}_${sim}.nc";
	      }
	      $rstFile = "${rstRoot}${rstName}";
	      if ( !( -f $rstFile ) ) {
 	        print "\nWARNING: File ${rstFile} does not exist so it cannot be included in your run directory. Sample restart files can be found in the SPC_RESTARTS directory or you can use your own restart file.\n\n";
 	      } else {
	        $cmd = "ln -sf ${rstFile} ${copyDir}/${rstName}";
	        qx/$cmd/;		
 	      }
	    }

	    # Make symbolic link to gcgrid for accessing met fields
	    $cmd = "ln -sf ${DATA_ROOT}/GEOS_0.25x0.3125/GEOS_FP ${copyDir}/MetDir";
	    qx/$cmd/;		

	    # Make symbolic link to HEMCO emissions directory
	    $cmd = "ln -sf ${DATA_ROOT}/HEMCO ${copyDir}/MainDataDir";
	    qx/$cmd/;		

	    # make symbolic link to chemistry data directory
	    $cmd = "ln -sf ${DATA_ROOT}/CHEM_INPUTS ${copyDir}/ChemDataDir";
	    qx/$cmd/;		

	    # Make symbolic link to tile files used for lat-lon <-> cubed sphere
	    $cmd = "ln -sf ${DATA_ROOT}/GCHP/TileFiles ${copyDir}/TileFiles";
	    qx/$cmd/;	

          } else {

	    #---------------------------------------------
	    # NOT DRY RUN: Copy the directories (non-GCHP)
	    #---------------------------------------------

	    # Execute the copy command
	    qx/$cmd/;

	    # Make the input.geos and HEMCO_Config.rc file from templates.
            # Also makes the CAP.rc and runConfig.sh files for GCHP.
	    &makeInputs( $start, $end,  $copyDir, $met, $grid, $nest, $sim );

	    # Remove the output files from the copied run dir
	    $cmd =  "rm -f $copyDir/input.geos.*";
	    $cmd .= " ${copyDir}/HISTORY.rc.template";
	    $cmd .= " ${copyDir}/HEMCO_Config.template";
	    $cmd .= " ${copyDir}/trac_avg.*";
	    $cmd .= " ${copyDir}/GEOSChem_restart.*";
	    $cmd .= " ${copyDir}/lastbuild*";
	    $cmd .= " ${copyDir}/geos.*";
	    $cmd .= " ${copyDir}/Ox.mass.*";
            $cmd .= " ${copyDir}/*.log";
	    $cmd .= " ${copyDir}/*.mp";
	    $cmd .= " ${copyDir}/*.sp";
      	    qx/$cmd/;

            # Copy GEOS-Chem Classic Makefile to copied run directory
            $cmd = "cp ../runs/shared_inputs/Makefiles/Makefile $copyDir/Makefile";
            qx/$cmd/;
          
            # Copy UT/perl/getRunInfo to copied run directory
            $cmd = "cp ./getRunInfo $copyDir/getRunInfo"; 
            qx/$cmd/;

	    # Copy perl/validate.pl to copied run directory 
            $cmd = "cp ./validate.pl $copyDir/validate.pl"; 
            qx/$cmd/;
          
	    # Set permissions for HEMCO restart file to read-only
            # to prevent deletion when cleaning up directory
	    $cmd = "[ -f HEMCO_restart* ] && chmod 444 $copyDir/HEMCO_restart.*";
	    qx/$cmd/;

	    # Create symbolic link to the restart file
	    if ( length( $nest ) > 0 ) {
	      $rstFile = "$rstRoot$rstPref$grid\_$sim\_$nest.nc";
	    } else {
	      if ( $sim =~ m/gc_timing/ ) {
	    	$rstFile = "$rstRoot$rstPref$grid\_standard.nc";
	      } elsif ( $sim =~ m/RRTMG/ ) {
	    	$rstFile = "$rstRoot$rstPref$grid\_tropchem.nc";
	      } elsif ( $sim =~ m/RnPbBe/ ) {
		$rstFile = "$rstRoot$rstPref$grid\_RnPbBePasv_72L.nc";
	      } else {
	    	$rstFile = "$rstRoot$rstPref$notDir.nc";
	      }
	    }
	    if ( !( -f $rstFile ) ){
	      print "\nWARNING: File $rstFile does not exist, so a sample restart file will not be included in your run directory. Sample restart files can be found in the SPC_RESTARTS directory or you can use your own restart file.\n\n";
  	    } else {
	      $cmd = "ln -sf $rstFile $copyDir/GEOSChem_restart.${start}00.nc";
	      qx/$cmd/;
            }
          }
        }

	# Increment counter
	$i++;
      }
    }	

  }

  # End splash page
  print '%%%%%%%%%%%%%%%%%%%%%%%%%%%%%%%%%%%%%%%%%%%%%%%%%%%%%%%%%%%%%%'."\n";

  # Return normally
  return( $? );
}
#EOP
#------------------------------------------------------------------------------
#                  GEOS-Chem Global Chemical Transport Model                  !
#------------------------------------------------------------------------------
#BOP
#
# !IROUTINE: main
#
# !DESCRIPTION: Driver program for the gcCopyRunDirs script.
#\\
#\\
# !INTERFACE:
#
sub main(@) {
#
# !CALLING SEQUENCE:
#  doUnitTest OPTIONS-FILENAME DRYRUN
#
# !REVISION HISTORY:
#  23 May 2013 - R. Yantosca - Initial version, based on gcUnitTest
#  18 Mar 2015 - R. Yantosca - Now use default file "CopyRunDirs.input"
#EOP
#------------------------------------------------------------------------------
#BOC

  # If the user passes a filename from the command line, use it
  # Otherwise, default to "UnitTest.input"
  if    ( scalar( @ARGV ) == 2 ) { &doCopyDirs( @ARGV                  ); }
  elsif ( scalar( @ARGV ) == 1 ) { &doCopyDirs( $ARGV[0],            0 ); }
  else                           { &doCopyDirs( "CopyRunDirs.input", 0 ); }

  # Exit and pass status code back
  return( $? );
}
#EOC
#------------------------------------------------------------------------------

# Call main program
main();

# Exit and pass status code back to Unix shell
exit( $? );


