#------------------------------------------------------------------------------
#                  GEOS-Chem Global Chemical Transport Model                  !
#------------------------------------------------------------------------------
#BOP
#
# !MODULE: Makefile
#
# !DESCRIPTION: Makefile for use with UnitTest and GEOS-Chem run directories 
#  copied from UnitTest.
#\\
#\\
# !REMARKS:
#  (1) Users may configure CODE_DIR, VERSION, and LOG_DIR to automatically
#      the pass the source code location, output file prefix, and 
#      log directory path to the make command. Default values are
#      defined in this Makefile.
#
#  (2) There are two processing modes available: sp and mp. sp uses a single
#      processor while mp uses multiple processors. All output files
#      have a .sp or .mp suffix depending on what processing mode was run.
#
#  (3) MET, GRID, and NEST are automatically read from input.geos and passed 
#      to the make command. There is only one possible combination of MET, 
#      GRID, and NEST per run directory. Simulation information is in 
#      the input.geos configuration file.
#
#  (3) Users may configure tokens CODE_DIR, VERSION, and LOG_DIR to 
#      automatically pass the source code location, output file prefix, and 
#      log directory path to the make command. Default values are
#      defined in this Makefile.
#
#  (4) All output files generated using the same processing mode will be 
#      overwritten between runs unless renamed or moved.
#
#  (5) Most recent build settings, including compile date, are output to a 
#      file called LastBuildInfo. Compile settings useful for debugging
#      include: BOUNDS=y, TRACEBACK=y, FPE=y, DEBUG=y.
#
#  (6) Example make commands:
#        make -j4 mpbuild                    # build with default settings
#        make -j4 CODE_DIR=~/mycode mpbuild  # manually specify code to build
#        make -j4 TRACEBACK=y mpbuild        # build with optional settings
#        make -j4 mprun                      # run GEOS-Chem
#        make -j4 mp                         # build and run GEOS-Chem
#        make mplogclean                     # remove .mp log files
#        make mpdataclean                    # remove .mp output data files
#        make mpexeclean                     # remove geos.mp executable
#	 make mpclean                        # do the previous 3 commands
#        make superclean                     # Remove all output files
#                                              make code dir realclean
# 
# !REVISION HISTORY: 
#  02 Apr 2015 - E. Lundgren - Initial version
#EOP
#------------------------------------------------------------------------------
#BOC

# Unix shell
SHELL    :=/bin/bash

# Run directory ID
RUNID    :=$(notdir $(shell pwd))

# Executables
EXE_SP   :=geos.sp
EXE_MP   :=geos.mp

###############################################################################

#   %%%%%%%%%%%%%%%%%%%%%%%%%
#   %  CONFIGURABLE TOKENS  %	
#   %%%%%%%%%%%%%%%%%%%%%%%%%

# Define source code location
ifndef CODE_DIR
 CODE_DIR :=/home/elundgren/GC/Code.Dev
endif

# Define output log file destination (default is run directory) 
ifndef LOG_DIR 
 LOG_DIR :=.
endif

# Define filename prefix for GEOS-Chem run log
ifndef VERSION
 VERSION :=v10-01h
endif

###############################################################################

# Get the start & end dates, met source, grid resolution, and nested grid
# information for the run by parsing the input.geos configuration file
MET      :=$(shell ./getRunInfo 0 )
GRID     :=$(shell ./getRunInfo 1 )
SIM      :=$(shell ./getRunInfo 2 )
NEST     :=$(shell ./getRunInfo 3 )
START    :=$(shell ./getRunInfo 4 )
END      :=$(shell ./getRunInfo 5 )
HMCO_END :=$(END)

# Define log file names and information
TIMESTAMP    := $(shell date +"%Y/%m/%d %H:%M")	
LOG_COMP     :="$(LOG_DIR)/LastBuildInfo"
LOG_RUN      :="$(LOG_DIR)/$(VERSION).$(RUNID).Run"
LOG_HMCO     :="$(LOG_DIR)/$(VERSION).$(RUNID).HEMCO"

# Define output data file names
TRAC_AVG :=trac_avg.$(RUNID).$(START)
TRAC_RST :=trac_rst.$(RUNID).$(END)
HMCO_RST :=HEMCO_restart.$(HMCO_END).nc

# Unit test validation script and output file
VALIDATE :=/usr/bin/perl ./validate
RESULTS  :=$(LOG_DIR)/$(VERSION).results.log

#=============================================================================
# Makefile targets: type "make help" for a complete list!
#=============================================================================

.PHONY: all dataclean logclean fileclean spclean mpclean
.PHONY: spexeclean mpexeclean superclean printallinfo

#%%%%%%%%%%%%%%%%%%
#  Build and Run  %
#%%%%%%%%%%%%%%%%%%

all: unittest

unittest:
	@$(MAKE) superclean
	@$(MAKE) sp
	@$(MAKE) realclean
	@$(MAKE) mp
	@$(MAKE) check

sp:
	@$(MAKE) -C $(CODE_DIR) MET=$(MET) GRID=$(GRID) NEST=$(NEST) OMP=no
	cp -f $(CODE_DIR)/bin/geos geos.sp
	$(EXE_SP) > $(LOG_RUN)
	@$(MAKE) printruninfo >> $(LOG_RUN)
	@$(MAKE) printbuildinfo > $(LOG_COMP)
	@$(MAKE) addsuffixsp
	@$(MAKE) printallinfo

mp:
	@$(MAKE) -C $(CODE_DIR) MET=$(MET) GRID=$(GRID) NEST=$(NEST) OMP=yes
	cp -f $(CODE_DIR)/bin/geos geos.mp
	$(EXE_MP) > $(LOG_RUN)
	@$(MAKE) printruninfo >> $(LOG_RUN)
	@$(MAKE) printbuildinfo > $(LOG_COMP)
	@$(MAKE) addsuffixmp
	@$(MAKE) printallinfo

#%%%%%%%%%%%%%%%
#  Build Only  %
#%%%%%%%%%%%%%%%

spbuild:
	@$(MAKE) splogclean
	@$(MAKE) -C $(CODE_DIR) MET=$(MET) GRID=$(GRID) NEST=$(NEST) OMP=no
	cp -f $(CODE_DIR)/bin/geos geos.sp
	@$(MAKE) printbuildinfo > $(LOG_COMP)
	@$(MAKE) addsuffixsp
	@$(MAKE) printbuildinfo

mpbuild:
	@$(MAKE) mplogclean
	@$(MAKE) -C $(CODE_DIR) MET=$(MET) GRID=$(GRID) NEST=$(NEST) OMP=yes
	cp -f $(CODE_DIR)/bin/geos geos.mp
	@$(MAKE) printbuildinfo > $(LOG_COMP)
	@$(MAKE) addsuffixmp
	@$(MAKE) printbuildinfo

#%%%%%%%%%%%%%
#  Run Only  %
#%%%%%%%%%%%%%

sprun:
	$(EXE_SP) > $(LOG_RUN)
	@$(MAKE) printruninfo >> $(LOG_RUN)
	@$(MAKE) addsuffixsp
	@$(MAKE) printruninfo

mprun:
	$(EXE_MP) > $(LOG_RUN)
	@$(MAKE) printruninfo >> $(LOG_RUN)
	@$(MAKE) addsuffixmp
	@$(MAKE) printruninfo

#%%%%%%%%%%%%%%%%%%%%%%%
#  Remove Output Data  %
#%%%%%%%%%%%%%%%%%%%%%%%

dataclean: spdataclean mpdataclean

spdataclean:
	rm -f $(TRAC_AVG)*.sp
	rm -f $(TRAC_RST)*.sp
	rm -f $(HMCO_RST)*.sp
	rm -f diaginfo.dat tracerinfo.dat

mpdataclean:
	rm -f $(TRAC_AVG)*.mp
	rm -f $(TRAC_RST)*.mp
	rm -f $(HMCO_RST)*.mp
	rm -f diaginfo.dat tracerinfo.dat

#%%%%%%%%%%%%%%%%
#  Remove Logs  %
#%%%%%%%%%%%%%%%%

logclean: splogclean mplogclean

splogclean:
	rm -f $(LOG_DIR)/$(VERSION).$(RUNID).*.sp

mplogclean:
	rm -f $(LOG_DIR)/$(VERSION).$(RUNID).*.mp

#%%%%%%%%%%%%%%%%%%%%%%%
#  Remove Executables  %
#%%%%%%%%%%%%%%%%%%%%%%%

execlean: spexeclean mpexeclean

spexeclean:
	rm -f $(EXE_SP)

mpexeclean:
	rm -f $(EXE_MP)


#%%%%%%%%%%%%%%%
#  Remove All  %
#%%%%%%%%%%%%%%%

fileclean: dataclean logclean execlean

spclean: spdataclean splogclean spexeclean

mpclean: mpdataclean mplogclean mpexeclean

#%%%%%%%%%%%%%%%%%%%%%%%%
#  Remove Config Files  %
#%%%%%%%%%%%%%%%%%%%%%%%%

extrafileclean:
	rm -f input.geos
	rm -f HEMCO_Config.rc

#%%%%%%%%%%%%%%%%%
#  Clean Source  % 
#%%%%%%%%%%%%%%%%%

clean:
	@$(MAKE) -C $(CODE_DIR) clean

realclean:
	@$(MAKE) -C $(CODE_DIR) realclean

#%%%%%%%%%%%%%%%%%%%%%%%%%
#  Clean and Remove All  %
#%%%%%%%%%%%%%%%%%%%%%%%%%

superclean: fileclean realclean

#%%%%%%%%%%
#  Print  %
#%%%%%%%%%%

printruninfo:
	@echo "RUN SETTINGS:"
	@echo "  START    : $(START)"
	@echo "  END      : $(END)"
	@echo "  RUNID    : $(RUNID)"
	@echo "  VERSION  : $(VERSION)"
	@echo "  TRAC_AVG : $(TRAC_AVG)"
	@echo "  TRAC_RST : $(TRAC_RST)"
	@echo "  HMCO_RST : $(HMCO_RST)"
	@echo "  HMCO_END : $(HMCO_END)"
	@echo "  LOG_DIR  : $(LOG_DIR)"
	@echo "  LOG_RUN  : $(LOG_RUN)"
	@echo "  LOG_HMCO : $(LOG_HMCO)"

printbuildinfo:
	@echo "BUILD INFORMATION:"
	@echo "  CODE_DIR : $(CODE_DIR)"
	@echo "  VERSION  : $(VERSION)"
	@echo "  MET      : $(MET)"
	@echo "  GRID     : $(GRID)"
	@echo "  SIM      : $(SIM)"
	@echo "  NEST     : $(NEST)"
	@echo "  TRACEBACK : $(TRACEBACK)"
	@echo "  BOUNDS   : $(BOUNDS)"
	@echo "  DEBUG    : $(DEBUG)"
	@echo "  FPE      : $(FPE)"
	@echo "  NO_ISO   : $(NO_ISO)"
	@echo "  COMPILER : $(COMPILER)"
	@echo "  TIMESTAMP: $(TIMESTAMP)"

printallinfo: 
	@$(MAKE) printruninfo
	@$(MAKE) printbuildinfo

#%%%%%%%%%%%%%%
#  Utilities  %
#%%%%%%%%%%%%%%

addsuffixsp:
	if [ -f $(TRAC_AVG) ]; then mv -f $(TRAC_AVG) $(TRAC_AVG).sp; fi;
	if [ -f $(TRAC_RST) ]; then mv -f $(TRAC_RST) $(TRAC_RST).sp; fi;
	if [ -f $(HMCO_RST) ]; then mv -f $(HMCO_RST) $(HMCO_RST).sp; fi;
	if [ -f $(LOG_RUN)  ]; then mv -f $(LOG_RUN) $(LOG_RUN).sp; fi;
	if [ -f $(LOG_HMCO) ]; then mv -f $(LOG_HMCO) $(LOG_HMCO).sp; fi;
	if [ -f $(LOG_COMP) ]; then mv -f $(LOG_COMP) $(LOG_COMP).sp; fi;


addsuffixmp:
	if [ -f $(TRAC_AVG) ]; then mv -f $(TRAC_AVG) $(TRAC_AVG).mp; fi;
	if [ -f $(TRAC_RST) ]; then mv -f $(TRAC_RST) $(TRAC_RST).mp; fi;
	if [ -f $(HMCO_RST) ]; then mv -f $(HMCO_RST) $(HMCO_RST).mp; fi;
	if [ -f $(LOG_RUN)  ]; then mv -f $(LOG_RUN) $(LOG_RUN).mp; fi;
	if [ -f $(LOG_COMP) ]; then mv -f $(LOG_COMP) $(LOG_COMP).mp; fi;
	if [ -f $(LOG_COMP) ]; then mv -f $(LOG_COMP) $(LOG_COMP).mp; fi;

check:
	@$(VALIDATE) $(TRAC_AVG).sp $(TRAC_AVG).mp 1 0 >> $(RESULTS)
	@$(VALIDATE) $(TRAC_RST).sp $(TRAC_RST).mp 0 0 >> $(RESULTS)
	@$(VALIDATE) $(HMCO_RST).sp $(HMCO_RST).mp 0 1 >> $(RESULTS)

#EOC
