#------------------------------------------------------------------------------
#                  GEOS-Chem Global Chemical Transport Model                  !
#------------------------------------------------------------------------------
#BOP
#
# !INCLUDE: UnitTest.input
#
# !DESCRIPTION: Input file that specifies debugging options for the 
#  GEOS-Chem unit tester.
#\\
#\\
# !REMARKS:  
#  To omit individual unit tests (or input settings), place a # comment
#  character in the first column.
#
#  For a complete explanation of how to customize the settings below for
#  your installation, please see these wiki posts:
#
#    http://wiki.geos-chem.org/GEOS-Chem_Unit_Tester#The_INPUTS_section
#    http://wiki.geos-chem.org/GEOS-Chem_Unit_Tester#The_RUNS_section
#
# !REVISION HISTORY: 
# Type 'gitk' at the prompt to browse the revision history.
#EOP
#------------------------------------------------------------------------------
#
# !INPUTS:
#
# %%% ID tags %%%
#
   VERSION          : 12.8.0
   VERSION_TAG      : GC_{VERSION}_{TODAYSDATE}
   DESCRIPTION      : Tests GEOS-Chem 12.8.0 (edit description as necessary)
#
# %%% Data path and HEMCO settings %%%
#
   DATA_ROOT        : /n/holylfs/EXTERNAL_REPOS/GEOS-CHEM/gcgrid/data/ExtData
   VERBOSE          : 3
   WARNINGS         : 3
#
# %%% Code and queue settings %%%
#
   CODE_DIR         : {HOME}/GC/Code.{VERSION}
   MAKE_CMD         : make -j4 BOUNDS=y DEBUG=y FPEX=y
   SUBMIT           : sbatch
#
# %%% Unit tester path names %%%
#
   UNIT_TEST_ROOT   : {HOME}/UT
   RUN_ROOT         : {UTROOT}/runs
   RUN_DIR          : {RUNROOT}/{RUNDIR}
   JOB_DIR          : {UTROOT}/jobs
   LOG_DIR          : {UTROOT}/logs/{VERSION_TAG}
   PERL_DIR         : {UTROOT}/perl
#
# %%% Web and text display options %%%
#
   TEMPLATE         : {PERLDIR}/ut_template.html
   TXT_GRID         : {LOGDIR}/{VERSION_TAG}.results.txt
   WEB_GRID         : {LOGDIR}/{VERSION_TAG}.results.html
   WEB_PUSH         : NONE
#
#  %%%%%%%%%%%%%%%%%%%%%%%%%%%%%%%%%%%%%%%%%%%%%%%%%%%%%%%%%%%%%%%%%%%%
#  %%%  OPTIONAL COMMANDS:                                          %%%
#  %%%                                                              %%%
#  %%%  If your system uses the SLURM scheduler, then you can       %%%
#  %%%  define several #SBATCH tags that will be added to the top   %%%
#  %%%  of the job script.  Otherwise you can comment these lines   %%%
#  %%%  out with the # comment character.                           %%%
#  %%%                                                              %%%
#  %%%     NOTE: If you do use these SLURM commands, then also be   %%%
#  %%%     sure to set the SUBMIT command above to "sbatch".        %%%
#  %%%                                                              %%%
#  %%%  The INIT_COMMANDS tag will let you specify any optional     %%%
#  %%%  initialization commands that will be placed at the top      %%%
#  %%%  of the job script.  For example, if your system requires    %%%
#  %%%  that modules need to be loaded from within the job script,  %%%
#  %%%  you can specify those instructions here.                    %%%
#  %%%%%%%%%%%%%%%%%%%%%%%%%%%%%%%%%%%%%%%%%%%%%%%%%%%%%%%%%%%%%%%%%%%%
#
   SLURM_CPUS       : 4
   SLURM_NODES      : 1
   SLURM_TIME       : 1-12:00
   SLURM_MEMORY     : 35000
   SLURM_PARTITION  : huce_intel
   SLURM_CONSTRAINT : intel
   SLURM_MAILTYPE   : END

   # Add initialization commands for your system here if necessary
   # Otherwise, leave these commented out
   #INIT_COMMANDS    : . ~/.bashrc
#
# !RUNS:
#  Specify the debugging runs that you want to perform below.
#  You can deactivate runs by commenting them out with "#".
#
#--------|-----------|------|----------------|------------|--------------|-----|
# MET    | GRID      | NEST | SIMULATION     | START DATE | END DATE     |EXTRA|
#--------|-----------|------|----------------|------------|--------------|-----|
# ======= GEOS-Chem benchmark ================================================
  geosfp   4x5         -      benchmark        2016070100   201607010020   -
# ======= Transport Tracers (formerly RnPbBe) ================================
  geosfp   4x5         -      TransportTracers 2016010100   201601010020   -
  merra2   4x5         -      TransportTracers 2016010100   201601010020   -
  geosfp   2x25        -      TransportTracers 2016010100   201601010020   -
  merra2   2x25        -      TransportTracers 2016010100   201601010020   -
# ======= Mercury ============================================================
  geosfp   4x5         -      Hg               2016010100   201601010020   -
  merra2   4x5         -      Hg               2016010100   201601010020   -
  geosfp   2x25        -      Hg               2016010100   201601010020   -
  merra2   2x25        -      Hg               2016010100   201601010020   -
# ======= Tagged Mercury =====================================================
  geosfp   4x5         -      tagHg            2016010100   201601010020   -
  merra2   4x5         -      tagHg            2016010100   201601010020   -
# ======= POPs ===============================================================
  geosfp   4x5         -      POPs             2016070100   201607010020   -
  merra2   4x5         -      POPs             2016070100   201607010020   -
  geosfp   2x25        -      POPs             2016070100   201607010020   -
  merra2   2x25        -      POPs             2016070100   201607010020   -
# ======= Methane ============================================================
  geosfp   4x5         -      CH4              2016070100   201607010020   -
  merra2   4x5         -      CH4              2016070100   201607010020   -
  geosfp   2x25        -      CH4              2016070100   201607010020   -
  merra2   2x25        -      CH4              2016070100   201607010020   -
  geosfp   025x03125   na     CH4              2016070100   201607010010   -
  merra2   05x0625     na     CH4              2016070100   201607010020   -
# ======= Tagged O3 ==========================================================
  geosfp   4x5         -      tagO3            2016070100   201607010020   -
  merra2   4x5         -      tagO3            2016070100   201607010020   -
  geosfp   2x25        -      tagO3            2016070100   201607010020   -
  merra2   2x25        -      tagO3            2016070100   201607010020   -
# ======= Tagged CO ==========================================================
  geosfp   4x5         -      tagCO            2016070100   201607010020   -
  merra2   4x5         -      tagCO            2016070100   201607010020   -
  geosfp   2x25        -      tagCO            2016070100   201607010020   -
  merra2   2x25        -      tagCO            2016070100   201607010020   -
# ======= Carbon Dioxide =====================================================
  geosfp   2x25        -      CO2              2016070100   201607010020   -
  merra2   2x25        -      CO2              2016070100   201607010020   -
# ======= Offline Aerosols ===================================================
  geosfp   4x5         -      aerosol          2016070100   201607010020   - 
  merra2   4x5         -      aerosol          2016070100   201607010020   - 
  geosfp   2x25        -      aerosol          2016070100   201607010020   -
  merra2   2x25        -      aerosol          2016070100   201607010020   -
# ======= Standard ===========================================================
  geosfp   4x5         -      standard         2016070100   201607010020   -
  merra2   4x5         -      standard         2016070100   201607010020   -
  geosfp   2x25        -      standard         2016070100   201607010020   -
  merra2   2x25        -      standard         2016070100   201607010020   -
# ======= Tropchem ===========================================================
  geosfp   4x5         -      tropchem         2016070100   201607010020   -
  merra2   4x5         -      tropchem         2016070100   201607010020   -
  geosfp   2x25        -      tropchem         2016070100   201607010020   -
  merra2   2x25        -      tropchem         2016070100   201607010020   -
# ======= Complex SOA (w/o and w/ SVPOA) =====================================
  geosfp   4x5         -      complexSOA       2016070100   201607010020   -
  merra2   4x5         -      complexSOA       2016070100   201607010020   -
  geosfp   2x25        -      complexSOA       2016070100   201607010020   -
  merra2   2x25        -      complexSOA       2016070100   201607010020   -
  geosfp   4x5         -      complexSOA_SVPOA 2016070100   201607010020   -
  merra2   4x5         -      complexSOA_SVPOA 2016070100   201607010020   -
  geosfp   2x25        -      complexSOA_SVPOA 2016070100   201607010020   -
  merra2   2x25        -      complexSOA_SVPOA 2016070100   201607010020   -
# ======= Acid uptake on dust ================================================
  geosfp   4x5         -      aciduptake       2016070100   201607010020   -
  geosfp   2x25        -      aciduptake       2016070100   201607010020   -
# ======= Marine POA =========================================================
  geosfp   4x5         -      marinePOA        2016070100   201607010020   -
  geosfp   2x25        -      marinePOA        2016070100   201607010020   -
# ======= APM aerosol microphysics =========================================
  geosfp   4x5         -      APM              2016070100   201607010020   -
  merra2   4x5         -      APM              2016070100   201607010020   -
# ======= TOMAS aerosol microphysics =========================================
  geosfp   4x5         -      TOMAS15          2016070100   201607010100   -
  geosfp   4x5         -      TOMAS40          2016070100   201607010100   -
# ======= RRTMG online radiative transfer ====================================
#### NOTE: At present, RRTMG does not work with GNU Fortran (bmy, 8/6/18) ####
  geosfp   4x5         -      RRTMG            2016070100   201607010040   -
  merra2   4x5         -      RRTMG            2016070100   201607010040   -
# geosfp   2x25        -      RRTMG            2016070100   201607010040   -
# merra2   2x25        -      RRTMG            2016070100   201607010040   -
# ======= Nested model runs ==================================================
  merra2   05x0625     as     tropchem         2016070100   201607010020   -
  merra2   05x0625     na     tropchem         2016070100   201607010020   -
  geosfp   025x03125   as     tropchem         2016070100   201607010010   -
  geosfp   025x03125   na     tropchem         2016070100   201607010010   -
 !END OF RUNS:
#EOP
#------------------------------------------------------------------------------
