#------------------------------------------------------------------------------
#          Harvard University Atmospheric Chemistry Modeling Group            !
#------------------------------------------------------------------------------
#BOP
#
# !INCLUDE: UnitTest.input
#
# !DESCRIPTION: Specifies debugging options for the GEOS-Chem unit tester.
#\\
#\\
# !REMARKS:
#
# !REVISION HISTORY: 
#  22 Aug 2013 - R. Yantosca - Initial version
#------------------------------------------------------------------------------
#
# !INPUTS:
#
   VERSION   : v9-02o
   CODE_DIR  : /home/bmy/GC/Code.v9-02
   DATA_ROOT : /as/data/geos
   RUN_DIR   : /home/bmy/UT/runs/{RUNDIR}
   JOB_DIR   : /home/bmy/UT/jobs
   LOG_DIR   : /home/bmy/UT/logs
   PERL_DIR  : /home/bmy/UT/perl/
   COMPILER  : ifort
   MAKE_CMD  : make -j4 BOUNDS=y DEBUG=y
   SUBMIT    : submit smp4
#
# !RUNS:
#  Specify the debugging runs that you want to perform below.
#  You can deactivate runs by commenting them out with "#".
#
#---------|-----------|------|----------------|------------|------------|
#  MET    | GRID      | NEST | SIMULATION     | START DATE | END DATE   |
#---------|-----------|------|----------------|------------|------------|
   geos5     4x5         -      RnPbBe          2005070100   2005070102
  !END OF RUNS:
#  geos5     4x5         -      fullchem         2005070100   2005070102
#  geosfp    025x03125   na     fullchem         2013070100   2013070102
#  geosfp    2x25        -      fullchem         2013070100   2013070102
#  geosfp    4x5         -      fullchem         2013070100   2013070102
#  geos5     05x0666     na     fullchem         2005070100   2005070102
#  geos5     2x25        -      fullchem         2005070100   2005070102
#  geos5     4x5         -      mercury          2005070100   2005070102
#  geos4     2x25        -      fullchem         2005070100   2005070102
#  geos4     4x5         -      fullchem         2005070100   2005070102
#  merra     4x5         -      fullchem         2005070100   2005070102
#  merra     4x5         -      Rn-Pb-Be         2005070100   2005070102
#  merra     4x5         -      tagCO            2005070100   2005070102
#  merra     4x5         -      mercury          2005070100   2005070102
#EOP
#------------------------------------------------------------------------------
