This directory holds output log files from a DiffTest simulation. Files 
generated during a full DiffTest include:

log.{MET}_{GRID}_{SIMULATION}.Dev
log.{MET}_{GRID}_{SIMULATION}.Ref

Other files can be further generated by the shell scripts in the main
DiffTest directory to list or summarize differences.

-GEOS-Chem Support Team, 10/1/2015