#!/bin/bash

#------------------------------------------------------------------------------
#          Harvard University Atmospheric Chemistry Modeling Group            !
#------------------------------------------------------------------------------
#BOP
#
# !MODULE: copy_1mon
#
# !DESCRIPTION: Copies the 1-month benchmark run directories to GcGrid for
#  permanent storage. This will sync with the AS ftp site approximately every
#  hour so that the GEOS-Chem Steering Committee and developers can examine
#  outputs from the 1-month benchmark simulations in a browser.
#\\
#\\
# !CALLING SEQUENCE:
#  ./copy_1month VERSION
#
# !REVISION HISTORY: 
#  See the GEOS-Chem UnitTest git history
#EOP
#------------------------------------------------------------------------------
#BOC

# Make sure the version string is passed
if [ $# != 1 ]; then 
   echo "Usage: copy_1mon VERSION"
   exit 0
fi

#----------------------------------------------------------------------------
# Copy output to gcgrid for permanent storage
#----------------------------------------------------------------------------

# Set variables
version=$1
dir="/n/holylfs/EXTERNAL_REPOS/GEOS-CHEM/gcgrid/geos-chem/1mo_benchmarks/GC_12/"

echo "======================================================================="
echo "Copying 1-month benchmark output to $dir$version"
echo "======================================================================="
echo " "

# Copy entire contents of 1-month benchmark run directory
cp -avL ../../$version $dir

# Remove files and directories not needed for permanent storage
rm -v $dir$version/geos.mp
rm -v $dir$version/validate.pl
rm -rf $dir$version/CodeDir

# Change group name of new directories and files
chgrp jacob_gcst $dir$version
chgrp jacob_gcst $dir$version/*
chgrp jacob_gcst $dir$version/Plots/*
chgrp jacob_gcst $dir$version/Plots/*/*

# Change permissions of new directory and files
chmod 775 $dir$version
chmod 664 $dir$version/*
chmod 775 $dir$version/Plots
chmod 775 $dir$version/Plots/*
chmod 664 $dir$version/Plots/*/*
chmod 664 $dir$version/Plots/*pdf
chmod 664 $dir$version/Plots/*txt
chmod 664 $dir$version/Plots/*json
chmod 664 $dir$version/Plots/*1mon
chmod 664 $dir$version/Plots/*results*
chmod 775 $dir$version/getRunInfo
chmod 775 $dir$version/Makefile
chmod 775 $dir$version/$version.run

# Print reminders to screen
echo " "
echo "======================================================================="
echo "Done copying 1-month benchmark output to $dir$version"
echo " "
echo "*** REMINDERS ***"
echo " - Update README file to reflect version updates"
echo " - Copy $version.results.* from UT to output directory"
echo "======================================================================="

# Clear variables
unset version
unset dir

# Exit normally
exit 0
#EOC
