This directory is for storage of HEMCO diagnostic output from a HEMCO
standalone simulation. For more information on how to download and run the
HEMCO standalone model, see:

  http://wiki.seas.harvard.edu/geos-chem/index.php/HEMCO_standalone

19 May 2017
GEOS-Chem Support Team
geos-chem-support@as.harvard.edu